version 2
run General-0-20180506-20:57:18-12176
attr configname General
attr datetime 20180506-20:57:18
attr experiment General
attr inifile pulse_net.ini
attr iterationvars ""
attr iterationvarsf ""
attr measurement ""
attr network Pulse_net
attr processid 12176
attr repetition 0
attr replication #0
attr resultdir results
attr runnumber 0
attr seedset 0
param **.attacker.sendInitialMessage true

vector 0 Pulse_net.victim[0] "" ETV
0	1308	0.400311661815	460800
0	1308	0.400311661815	460288
0	1308	0.400311661815	459776
0	1308	0.400311661815	459264
0	1308	0.400311661815	458752
0	1308	0.400311661815	458240
0	1308	0.400311661815	457728
0	1308	0.400311661815	457216
0	1308	0.400311661815	456704
0	1308	0.400311661815	456192
0	1308	0.400311661815	455680
0	1308	0.400311661815	455168
0	1308	0.400311661815	454656
0	1308	0.400311661815	454144
0	1308	0.400311661815	453632
0	1308	0.400311661815	453120
0	1308	0.400311661815	452608
0	1308	0.400311661815	452096
0	1308	0.400311661815	451584
0	1308	0.400311661815	451072
0	1308	0.400311661815	450560
0	1308	0.400311661815	450048
0	1308	0.400311661815	449536
0	1308	0.400311661815	449024
0	1308	0.400311661815	448512
0	1308	0.400311661815	448000
0	1308	0.400311661815	447488
0	1308	0.400311661815	446976
0	1308	0.400311661815	446464
0	1308	0.400311661815	445952
0	1308	0.400311661815	445440
0	1308	0.400311661815	444928
0	1308	0.400311661815	444416
0	1308	0.400311661815	443904
0	1308	0.400311661815	443392
0	1308	0.400311661815	442880
0	1308	0.400311661815	442368
0	1308	0.400311661815	441856
0	1308	0.400311661815	441344
0	1308	0.400311661815	440832
0	1308	0.400311661815	440320
0	1308	0.400311661815	439808
0	1308	0.400311661815	439296
0	1308	0.400311661815	438784
0	1308	0.400311661815	438272
0	1308	0.400311661815	437760
0	1308	0.400311661815	437248
0	1308	0.400311661815	436736
0	1308	0.400311661815	436224
0	1308	0.400311661815	435712
0	1308	0.400311661815	435200
0	1308	0.400311661815	434688
0	1308	0.400311661815	434176
0	1308	0.400311661815	433664
0	1308	0.400311661815	433152
0	1308	0.400311661815	432640
0	1308	0.400311661815	432128
0	1308	0.400311661815	431616
0	1308	0.400311661815	431104
0	1308	0.400311661815	430592
0	1308	0.400311661815	430080
0	1308	0.400311661815	429568
0	1308	0.400311661815	429056
0	1308	0.400311661815	428544
0	1308	0.400311661815	428032
0	1308	0.400311661815	427520
0	1308	0.400311661815	427008
0	1308	0.400311661815	426496
0	1308	0.400311661815	425984
0	1308	0.400311661815	425472
0	1308	0.400311661815	424960
0	1308	0.400311661815	424448
0	1308	0.400311661815	423936
0	1308	0.400311661815	423424
0	1308	0.400311661815	422912
0	1308	0.400311661815	422400
0	1308	0.400311661815	421888
0	1308	0.400311661815	421376
0	1308	0.400311661815	420864
0	1308	0.400311661815	420352
0	1308	0.400311661815	419840
0	1308	0.400311661815	419328
0	1308	0.400311661815	418816
0	1308	0.400311661815	418304
0	1308	0.400311661815	417792
0	1308	0.400311661815	417280
0	1308	0.400311661815	416768
0	1308	0.400311661815	416256
0	1308	0.400311661815	415744
0	1308	0.400311661815	415232
0	1308	0.400311661815	414720
0	1308	0.400311661815	414208
0	1308	0.400311661815	413696
0	1308	0.400311661815	413184
0	1308	0.400311661815	412672
0	1308	0.400311661815	412160
0	1308	0.400311661815	411648
0	1308	0.400311661815	411136
0	1308	0.400311661815	410624
0	1308	0.400311661815	410112
0	1308	0.400311661815	409600
0	1308	0.400311661815	409088
0	1308	0.400311661815	408576
0	1308	0.400311661815	408064
0	1308	0.400311661815	407552
0	1308	0.400311661815	407040
0	1308	0.400311661815	406528
0	1308	0.400311661815	406016
0	1308	0.400311661815	405504
0	1308	0.400311661815	404992
0	1308	0.400311661815	404480
0	1308	0.400311661815	403968
0	1308	0.400311661815	403456
0	1308	0.400311661815	402944
0	1308	0.400311661815	402432
0	1308	0.400311661815	401920
0	1308	0.400311661815	401408
0	1308	0.400311661815	400896
0	1308	0.400311661815	400384
0	1308	0.400311661815	399872
0	1308	0.400311661815	399360
0	1308	0.400311661815	398848
0	1308	0.400311661815	398336
0	1308	0.400311661815	397824
0	1308	0.400311661815	397312
0	1308	0.400311661815	396800
0	1308	0.400311661815	396288
0	1308	0.400311661815	395776
0	1308	0.400311661815	395264
0	1308	0.400311661815	394752
0	1308	0.400311661815	394240
0	1308	0.400311661815	393728
0	1308	0.400311661815	393216
0	1308	0.400311661815	392704
0	1308	0.400311661815	392192
0	1308	0.400311661815	391680
0	1308	0.400311661815	391168
0	1308	0.400311661815	390656
0	1308	0.400311661815	390144
0	1308	0.400311661815	389632
0	1308	0.400311661815	389120
0	1308	0.400311661815	388608
0	1308	0.400311661815	388096
0	1308	0.400311661815	387584
0	1308	0.400311661815	387072
0	1308	0.400311661815	386560
0	1308	0.400311661815	386048
0	1308	0.400311661815	385536
0	1308	0.400311661815	385024
0	1308	0.400311661815	384512
0	1308	0.400311661815	384000
0	1308	0.400311661815	383488
0	1308	0.400311661815	382976
0	1308	0.400311661815	382464
0	1308	0.400311661815	381952
0	1308	0.400311661815	381440
0	1308	0.400311661815	380928
0	1308	0.400311661815	380416
0	1308	0.400311661815	379904
0	1308	0.400311661815	379392
0	1308	0.400311661815	378880
0	1308	0.400311661815	378368
0	1308	0.400311661815	377856
0	1308	0.400311661815	377344
0	1308	0.400311661815	376832
0	1308	0.400311661815	376320
0	1308	0.400311661815	375808
0	1308	0.400311661815	375296
0	1308	0.400311661815	374784
0	1308	0.400311661815	374272
0	1308	0.400311661815	373760
0	1308	0.400311661815	373248
0	1308	0.400311661815	372736
0	1308	0.400311661815	372224
0	1308	0.400311661815	371712
0	1308	0.400311661815	371200
0	1308	0.400311661815	370688
0	1308	0.400311661815	370176
0	1308	0.400311661815	369664
0	1308	0.400311661815	369152
0	1308	0.400311661815	368640
0	1308	0.400311661815	368128
0	1308	0.400311661815	367616
0	1308	0.400311661815	367104
0	1308	0.400311661815	366592
0	1308	0.400311661815	366080
0	1308	0.400311661815	365568
0	1308	0.400311661815	365056
0	1308	0.400311661815	364544
0	1308	0.400311661815	364032
0	1308	0.400311661815	363520
0	1308	0.400311661815	363008
0	1308	0.400311661815	362496
0	1308	0.400311661815	361984
0	1308	0.400311661815	361472
0	1308	0.400311661815	360960
0	1308	0.400311661815	360448
0	1308	0.400311661815	359936
0	1308	0.400311661815	359424
0	1308	0.400311661815	358912
0	2008	0.400354204913	716800
0	2008	0.400354204913	716288
0	2008	0.400354204913	715776
0	2008	0.400354204913	715264
0	2008	0.400354204913	714752
0	2008	0.400354204913	714240
0	2008	0.400354204913	713728
0	2008	0.400354204913	713216
0	2008	0.400354204913	712704
0	2008	0.400354204913	712192
0	2008	0.400354204913	711680
0	2008	0.400354204913	711168
0	2008	0.400354204913	710656
0	2008	0.400354204913	710144
0	2008	0.400354204913	709632
0	2008	0.400354204913	709120
0	2008	0.400354204913	708608
0	2008	0.400354204913	708096
0	2008	0.400354204913	707584
0	2008	0.400354204913	707072
0	2008	0.400354204913	706560
0	2008	0.400354204913	706048
0	2008	0.400354204913	705536
0	2008	0.400354204913	705024
0	2008	0.400354204913	704512
0	2008	0.400354204913	704000
0	2008	0.400354204913	703488
0	2008	0.400354204913	702976
0	2008	0.400354204913	702464
0	2008	0.400354204913	701952
0	2008	0.400354204913	701440
0	2008	0.400354204913	700928
0	2008	0.400354204913	700416
0	2008	0.400354204913	699904
0	2008	0.400354204913	699392
0	2008	0.400354204913	698880
0	2008	0.400354204913	698368
0	2008	0.400354204913	697856
0	2008	0.400354204913	697344
0	2008	0.400354204913	696832
0	2008	0.400354204913	696320
0	2008	0.400354204913	695808
0	2008	0.400354204913	695296
0	2008	0.400354204913	694784
0	2008	0.400354204913	694272
0	2008	0.400354204913	693760
0	2008	0.400354204913	693248
0	2008	0.400354204913	692736
0	2008	0.400354204913	692224
0	2008	0.400354204913	691712
0	2008	0.400354204913	691200
0	2008	0.400354204913	690688
0	2008	0.400354204913	690176
0	2008	0.400354204913	689664
0	2008	0.400354204913	689152
0	2008	0.400354204913	688640
0	2008	0.400354204913	688128
0	2008	0.400354204913	687616
0	2008	0.400354204913	687104
0	2008	0.400354204913	686592
0	2008	0.400354204913	686080
0	2008	0.400354204913	685568
0	2008	0.400354204913	685056
0	2008	0.400354204913	684544
0	2008	0.400354204913	684032
0	2008	0.400354204913	683520
0	2008	0.400354204913	683008
0	2008	0.400354204913	682496
0	2008	0.400354204913	681984
0	2008	0.400354204913	681472
0	2008	0.400354204913	680960
0	2008	0.400354204913	680448
0	2008	0.400354204913	679936
0	2008	0.400354204913	679424
0	2008	0.400354204913	678912
0	2008	0.400354204913	678400
0	2008	0.400354204913	677888
0	2008	0.400354204913	677376
0	2008	0.400354204913	676864
0	2008	0.400354204913	676352
0	2008	0.400354204913	675840
0	2008	0.400354204913	675328
0	2008	0.400354204913	674816
0	2008	0.400354204913	674304
0	2008	0.400354204913	673792
0	2008	0.400354204913	673280
0	2008	0.400354204913	672768
0	2008	0.400354204913	672256
0	2008	0.400354204913	671744
0	2008	0.400354204913	671232
0	2008	0.400354204913	670720
0	2008	0.400354204913	670208
0	2008	0.400354204913	669696
0	2008	0.400354204913	669184
0	2008	0.400354204913	668672
0	2008	0.400354204913	668160
0	2008	0.400354204913	667648
0	2008	0.400354204913	667136
0	2008	0.400354204913	666624
0	2008	0.400354204913	666112
0	2408	0.400363173233	870400
0	2408	0.400363173233	869888
0	2408	0.400363173233	869376
0	2408	0.400363173233	868864
0	2408	0.400363173233	868352
0	2408	0.400363173233	867840
0	2408	0.400363173233	867328
0	2408	0.400363173233	866816
0	2408	0.400363173233	866304
0	2408	0.400363173233	865792
0	2408	0.400363173233	865280
0	2408	0.400363173233	864768
0	2408	0.400363173233	864256
0	2408	0.400363173233	863744
0	2408	0.400363173233	863232
0	2408	0.400363173233	862720
0	2408	0.400363173233	862208
0	2408	0.400363173233	861696
0	2408	0.400363173233	861184
0	2408	0.400363173233	860672
0	2408	0.400363173233	860160
0	2408	0.400363173233	859648
0	2408	0.400363173233	859136
0	2408	0.400363173233	858624
0	2408	0.400363173233	858112
0	2408	0.400363173233	857600
0	2408	0.400363173233	857088
0	2408	0.400363173233	856576
0	2408	0.400363173233	856064
0	2408	0.400363173233	855552
0	2408	0.400363173233	855040
0	2408	0.400363173233	854528
0	2408	0.400363173233	854016
0	2408	0.400363173233	853504
0	2408	0.400363173233	852992
0	2408	0.400363173233	852480
0	2408	0.400363173233	851968
0	2408	0.400363173233	851456
0	2408	0.400363173233	850944
0	2408	0.400363173233	850432
0	2408	0.400363173233	849920
0	2408	0.400363173233	849408
0	2408	0.400363173233	848896
0	2408	0.400363173233	848384
0	2408	0.400363173233	847872
0	2408	0.400363173233	847360
0	2408	0.400363173233	846848
0	2408	0.400363173233	846336
0	2408	0.400363173233	845824
0	2408	0.400363173233	845312
0	2408	0.400363173233	844800
0	2408	0.400363173233	844288
0	2408	0.400363173233	843776
0	2408	0.400363173233	843264
0	2408	0.400363173233	842752
0	2408	0.400363173233	842240
0	2408	0.400363173233	841728
0	2408	0.400363173233	841216
0	2408	0.400363173233	840704
0	2408	0.400363173233	840192
0	2408	0.400363173233	839680
0	2408	0.400363173233	839168
0	2408	0.400363173233	838656
0	2408	0.400363173233	838144
0	2408	0.400363173233	837632
0	2408	0.400363173233	837120
0	2408	0.400363173233	836608
0	2408	0.400363173233	836096
0	2408	0.400363173233	835584
0	2408	0.400363173233	835072
0	2408	0.400363173233	834560
0	2408	0.400363173233	834048
0	2408	0.400363173233	833536
0	2408	0.400363173233	833024
0	2408	0.400363173233	832512
0	2408	0.400363173233	832000
0	2408	0.400363173233	831488
0	2408	0.400363173233	830976
0	2408	0.400363173233	830464
0	2408	0.400363173233	829952
0	2408	0.400363173233	829440
0	2408	0.400363173233	828928
0	2408	0.400363173233	828416
0	2408	0.400363173233	827904
0	2408	0.400363173233	827392
0	2408	0.400363173233	826880
0	2408	0.400363173233	826368
0	2408	0.400363173233	825856
0	2408	0.400363173233	825344
0	2408	0.400363173233	824832
0	2408	0.400363173233	824320
0	2408	0.400363173233	823808
0	2408	0.400363173233	823296
0	2408	0.400363173233	822784
0	2408	0.400363173233	822272
0	2408	0.400363173233	821760
0	2408	0.400363173233	821248
0	2408	0.400363173233	820736
0	2408	0.400363173233	820224
0	2408	0.400363173233	819712
0	2508	0.400381605848	870400
0	2508	0.400381605848	869888
0	2508	0.400381605848	869376
0	2508	0.400381605848	868864
0	2508	0.400381605848	868352
0	2508	0.400381605848	867840
0	2508	0.400381605848	867328
0	2508	0.400381605848	866816
0	2508	0.400381605848	866304
0	2508	0.400381605848	865792
0	2508	0.400381605848	865280
0	2508	0.400381605848	864768
0	2508	0.400381605848	864256
0	2508	0.400381605848	863744
0	2508	0.400381605848	863232
0	2508	0.400381605848	862720
0	2508	0.400381605848	862208
0	2508	0.400381605848	861696
0	2508	0.400381605848	861184
0	2508	0.400381605848	860672
0	2508	0.400381605848	860160
0	2508	0.400381605848	859648
0	2508	0.400381605848	859136
0	2508	0.400381605848	858624
0	2508	0.400381605848	858112
0	2508	0.400381605848	857600
0	2508	0.400381605848	857088
0	2508	0.400381605848	856576
0	2508	0.400381605848	856064
0	2508	0.400381605848	855552
0	2508	0.400381605848	855040
0	2508	0.400381605848	854528
0	2508	0.400381605848	854016
0	2508	0.400381605848	853504
0	2508	0.400381605848	852992
0	2508	0.400381605848	852480
0	2508	0.400381605848	851968
0	2508	0.400381605848	851456
0	2508	0.400381605848	850944
0	2508	0.400381605848	850432
0	2508	0.400381605848	849920
0	2508	0.400381605848	849408
0	2508	0.400381605848	848896
0	2508	0.400381605848	848384
0	2508	0.400381605848	847872
0	2508	0.400381605848	847360
0	2508	0.400381605848	846848
0	2508	0.400381605848	846336
0	2508	0.400381605848	845824
0	2508	0.400381605848	845312
0	2508	0.400381605848	844800
0	2508	0.400381605848	844288
0	2508	0.400381605848	843776
0	2508	0.400381605848	843264
0	2508	0.400381605848	842752
0	2508	0.400381605848	842240
0	2508	0.400381605848	841728
0	2508	0.400381605848	841216
0	2508	0.400381605848	840704
0	2508	0.400381605848	840192
0	2508	0.400381605848	839680
0	2508	0.400381605848	839168
0	2508	0.400381605848	838656
0	2508	0.400381605848	838144
0	2508	0.400381605848	837632
0	2508	0.400381605848	837120
0	2508	0.400381605848	836608
0	2508	0.400381605848	836096
0	2508	0.400381605848	835584
0	2508	0.400381605848	835072
0	2508	0.400381605848	834560
0	2508	0.400381605848	834048
0	2508	0.400381605848	833536
0	2508	0.400381605848	833024
0	2508	0.400381605848	832512
0	2508	0.400381605848	832000
0	2508	0.400381605848	831488
0	2508	0.400381605848	830976
0	2508	0.400381605848	830464
0	2508	0.400381605848	829952
0	2508	0.400381605848	829440
0	2508	0.400381605848	828928
0	2508	0.400381605848	828416
0	2508	0.400381605848	827904
0	2508	0.400381605848	827392
0	2508	0.400381605848	826880
0	2508	0.400381605848	826368
0	2508	0.400381605848	825856
0	2508	0.400381605848	825344
0	2508	0.400381605848	824832
0	2508	0.400381605848	824320
0	2508	0.400381605848	823808
0	2508	0.400381605848	823296
0	2508	0.400381605848	822784
0	2508	0.400381605848	822272
0	2508	0.400381605848	821760
0	2508	0.400381605848	821248
0	2508	0.400381605848	820736
0	2508	0.400381605848	820224
0	2508	0.400381605848	819712
0	2608	0.400395319537	870400
0	2608	0.400395319537	869888
0	2608	0.400395319537	869376
0	2608	0.400395319537	868864
0	2608	0.400395319537	868352
0	2608	0.400395319537	867840
0	2608	0.400395319537	867328
0	2608	0.400395319537	866816
0	2608	0.400395319537	866304
0	2608	0.400395319537	865792
0	2608	0.400395319537	865280
0	2608	0.400395319537	864768
0	2608	0.400395319537	864256
0	2608	0.400395319537	863744
0	2608	0.400395319537	863232
0	2608	0.400395319537	862720
0	2608	0.400395319537	862208
0	2608	0.400395319537	861696
0	2608	0.400395319537	861184
0	2608	0.400395319537	860672
0	2608	0.400395319537	860160
0	2608	0.400395319537	859648
0	2608	0.400395319537	859136
0	2608	0.400395319537	858624
0	2608	0.400395319537	858112
0	2608	0.400395319537	857600
0	2608	0.400395319537	857088
0	2608	0.400395319537	856576
0	2608	0.400395319537	856064
0	2608	0.400395319537	855552
0	2608	0.400395319537	855040
0	2608	0.400395319537	854528
0	2608	0.400395319537	854016
0	2608	0.400395319537	853504
0	2608	0.400395319537	852992
0	2608	0.400395319537	852480
0	2608	0.400395319537	851968
0	2608	0.400395319537	851456
0	2608	0.400395319537	850944
0	2608	0.400395319537	850432
0	2608	0.400395319537	849920
0	2608	0.400395319537	849408
0	2608	0.400395319537	848896
0	2608	0.400395319537	848384
0	2608	0.400395319537	847872
0	2608	0.400395319537	847360
0	2608	0.400395319537	846848
0	2608	0.400395319537	846336
0	2608	0.400395319537	845824
0	2608	0.400395319537	845312
0	2608	0.400395319537	844800
0	2608	0.400395319537	844288
0	2608	0.400395319537	843776
0	2608	0.400395319537	843264
0	2608	0.400395319537	842752
0	2608	0.400395319537	842240
0	2608	0.400395319537	841728
0	2608	0.400395319537	841216
0	2608	0.400395319537	840704
0	2608	0.400395319537	840192
0	2608	0.400395319537	839680
0	2608	0.400395319537	839168
0	2608	0.400395319537	838656
0	2608	0.400395319537	838144
0	2608	0.400395319537	837632
0	2608	0.400395319537	837120
0	2608	0.400395319537	836608
0	2608	0.400395319537	836096
0	2608	0.400395319537	835584
0	2608	0.400395319537	835072
0	2608	0.400395319537	834560
0	2608	0.400395319537	834048
0	2608	0.400395319537	833536
0	2608	0.400395319537	833024
0	2608	0.400395319537	832512
0	2608	0.400395319537	832000
0	2608	0.400395319537	831488
0	2608	0.400395319537	830976
0	2608	0.400395319537	830464
0	2608	0.400395319537	829952
0	2608	0.400395319537	829440
0	2608	0.400395319537	828928
0	2608	0.400395319537	828416
0	2608	0.400395319537	827904
0	2608	0.400395319537	827392
0	2608	0.400395319537	826880
0	2608	0.400395319537	826368
0	2608	0.400395319537	825856
0	2608	0.400395319537	825344
0	2608	0.400395319537	824832
0	2608	0.400395319537	824320
0	2608	0.400395319537	823808
0	2608	0.400395319537	823296
0	2608	0.400395319537	822784
0	2608	0.400395319537	822272
0	2608	0.400395319537	821760
0	2608	0.400395319537	821248
0	2608	0.400395319537	820736
0	2608	0.400395319537	820224
0	2608	0.400395319537	819712
0	2608	0.400395319537	819200
0	2608	0.400395319537	818688
0	2608	0.400395319537	818176
0	2608	0.400395319537	817664
0	2608	0.400395319537	817152
0	2608	0.400395319537	816640
0	2608	0.400395319537	816128
0	2608	0.400395319537	815616
0	2608	0.400395319537	815104
0	2608	0.400395319537	814592
0	2608	0.400395319537	814080
0	2608	0.400395319537	813568
0	2608	0.400395319537	813056
0	2608	0.400395319537	812544
0	2608	0.400395319537	812032
0	2608	0.400395319537	811520
0	2608	0.400395319537	811008
0	2608	0.400395319537	810496
0	2608	0.400395319537	809984
0	2608	0.400395319537	809472
0	2608	0.400395319537	808960
0	2608	0.400395319537	808448
0	2608	0.400395319537	807936
0	2608	0.400395319537	807424
0	2608	0.400395319537	806912
0	2608	0.400395319537	806400
0	2608	0.400395319537	805888
0	2608	0.400395319537	805376
0	2608	0.400395319537	804864
0	2608	0.400395319537	804352
0	2608	0.400395319537	803840
0	2608	0.400395319537	803328
0	2608	0.400395319537	802816
0	2608	0.400395319537	802304
0	2608	0.400395319537	801792
0	2608	0.400395319537	801280
0	2608	0.400395319537	800768
0	2608	0.400395319537	800256
0	2608	0.400395319537	799744
0	2608	0.400395319537	799232
0	2608	0.400395319537	798720
0	2608	0.400395319537	798208
0	2608	0.400395319537	797696
0	2608	0.400395319537	797184
0	2608	0.400395319537	796672
0	2608	0.400395319537	796160
0	2608	0.400395319537	795648
0	2608	0.400395319537	795136
0	2608	0.400395319537	794624
0	2608	0.400395319537	794112
0	2608	0.400395319537	793600
0	2608	0.400395319537	793088
0	2608	0.400395319537	792576
0	2608	0.400395319537	792064
0	2608	0.400395319537	791552
0	2608	0.400395319537	791040
0	2608	0.400395319537	790528
0	2608	0.400395319537	790016
0	2608	0.400395319537	789504
0	2608	0.400395319537	788992
0	2608	0.400395319537	788480
0	2608	0.400395319537	787968
0	2608	0.400395319537	787456
0	2608	0.400395319537	786944
0	2608	0.400395319537	786432
0	2608	0.400395319537	785920
0	2608	0.400395319537	785408
0	2608	0.400395319537	784896
0	2608	0.400395319537	784384
0	2608	0.400395319537	783872
0	2608	0.400395319537	783360
0	2608	0.400395319537	782848
0	2608	0.400395319537	782336
0	2608	0.400395319537	781824
0	2608	0.400395319537	781312
0	2608	0.400395319537	780800
0	2608	0.400395319537	780288
0	2608	0.400395319537	779776
0	2608	0.400395319537	779264
0	2608	0.400395319537	778752
0	2608	0.400395319537	778240
0	2608	0.400395319537	777728
0	2608	0.400395319537	777216
0	2608	0.400395319537	776704
0	2608	0.400395319537	776192
0	2608	0.400395319537	775680
0	2608	0.400395319537	775168
0	2608	0.400395319537	774656
0	2608	0.400395319537	774144
0	2608	0.400395319537	773632
0	2608	0.400395319537	773120
0	2608	0.400395319537	772608
0	2608	0.400395319537	772096
0	2608	0.400395319537	771584
0	2608	0.400395319537	771072
0	2608	0.400395319537	770560
0	2608	0.400395319537	770048
0	2608	0.400395319537	769536
0	2608	0.400395319537	769024
0	2608	0.400395319537	768512
0	2708	0.400399527023	819200
0	2708	0.400399527023	818688
0	2708	0.400399527023	818176
0	2708	0.400399527023	817664
0	2708	0.400399527023	817152
0	2708	0.400399527023	816640
0	2708	0.400399527023	816128
0	2708	0.400399527023	815616
0	2708	0.400399527023	815104
0	2708	0.400399527023	814592
0	2708	0.400399527023	814080
0	2708	0.400399527023	813568
0	2708	0.400399527023	813056
0	2708	0.400399527023	812544
0	2708	0.400399527023	812032
0	2708	0.400399527023	811520
0	2708	0.400399527023	811008
0	2708	0.400399527023	810496
0	2708	0.400399527023	809984
0	2708	0.400399527023	809472
0	2708	0.400399527023	808960
0	2708	0.400399527023	808448
0	2708	0.400399527023	807936
0	2708	0.400399527023	807424
0	2708	0.400399527023	806912
0	2708	0.400399527023	806400
0	2708	0.400399527023	805888
0	2708	0.400399527023	805376
0	2708	0.400399527023	804864
0	2708	0.400399527023	804352
0	2708	0.400399527023	803840
0	2708	0.400399527023	803328
0	2708	0.400399527023	802816
0	2708	0.400399527023	802304
0	2708	0.400399527023	801792
0	2708	0.400399527023	801280
0	2708	0.400399527023	800768
0	2708	0.400399527023	800256
0	2708	0.400399527023	799744
0	2708	0.400399527023	799232
0	2708	0.400399527023	798720
0	2708	0.400399527023	798208
0	2708	0.400399527023	797696
0	2708	0.400399527023	797184
0	2708	0.400399527023	796672
0	2708	0.400399527023	796160
0	2708	0.400399527023	795648
0	2708	0.400399527023	795136
0	2708	0.400399527023	794624
0	2708	0.400399527023	794112
0	2708	0.400399527023	793600
0	2708	0.400399527023	793088
0	2708	0.400399527023	792576
0	2708	0.400399527023	792064
0	2708	0.400399527023	791552
0	2708	0.400399527023	791040
0	2708	0.400399527023	790528
0	2708	0.400399527023	790016
0	2708	0.400399527023	789504
0	2708	0.400399527023	788992
0	2708	0.400399527023	788480
0	2708	0.400399527023	787968
0	2708	0.400399527023	787456
0	2708	0.400399527023	786944
0	2708	0.400399527023	786432
0	2708	0.400399527023	785920
0	2708	0.400399527023	785408
0	2708	0.400399527023	784896
0	2708	0.400399527023	784384
0	2708	0.400399527023	783872
0	2708	0.400399527023	783360
0	2708	0.400399527023	782848
0	2708	0.400399527023	782336
0	2708	0.400399527023	781824
0	2708	0.400399527023	781312
0	2708	0.400399527023	780800
0	2708	0.400399527023	780288
0	2708	0.400399527023	779776
0	2708	0.400399527023	779264
0	2708	0.400399527023	778752
0	2708	0.400399527023	778240
0	2708	0.400399527023	777728
0	2708	0.400399527023	777216
0	2708	0.400399527023	776704
0	2708	0.400399527023	776192
0	2708	0.400399527023	775680
0	2708	0.400399527023	775168
0	2708	0.400399527023	774656
0	2708	0.400399527023	774144
0	2708	0.400399527023	773632
0	2708	0.400399527023	773120
0	2708	0.400399527023	772608
0	2708	0.400399527023	772096
0	2708	0.400399527023	771584
0	2708	0.400399527023	771072
0	2708	0.400399527023	770560
0	2708	0.400399527023	770048
0	2708	0.400399527023	769536
0	2708	0.400399527023	769024
0	2708	0.400399527023	768512
0	2808	0.400411332952	819200
0	2808	0.400411332952	818688
0	2808	0.400411332952	818176
0	2808	0.400411332952	817664
0	2808	0.400411332952	817152
0	2808	0.400411332952	816640
0	2808	0.400411332952	816128
0	2808	0.400411332952	815616
0	2808	0.400411332952	815104
0	2808	0.400411332952	814592
0	2808	0.400411332952	814080
0	2808	0.400411332952	813568
0	2808	0.400411332952	813056
0	2808	0.400411332952	812544
0	2808	0.400411332952	812032
0	2808	0.400411332952	811520
0	2808	0.400411332952	811008
0	2808	0.400411332952	810496
0	2808	0.400411332952	809984
0	2808	0.400411332952	809472
0	2808	0.400411332952	808960
0	2808	0.400411332952	808448
0	2808	0.400411332952	807936
0	2808	0.400411332952	807424
0	2808	0.400411332952	806912
0	2808	0.400411332952	806400
0	2808	0.400411332952	805888
0	2808	0.400411332952	805376
0	2808	0.400411332952	804864
0	2808	0.400411332952	804352
0	2808	0.400411332952	803840
0	2808	0.400411332952	803328
0	2808	0.400411332952	802816
0	2808	0.400411332952	802304
0	2808	0.400411332952	801792
0	2808	0.400411332952	801280
0	2808	0.400411332952	800768
0	2808	0.400411332952	800256
0	2808	0.400411332952	799744
0	2808	0.400411332952	799232
0	2808	0.400411332952	798720
0	2808	0.400411332952	798208
0	2808	0.400411332952	797696
0	2808	0.400411332952	797184
0	2808	0.400411332952	796672
0	2808	0.400411332952	796160
0	2808	0.400411332952	795648
0	2808	0.400411332952	795136
0	2808	0.400411332952	794624
0	2808	0.400411332952	794112
0	2808	0.400411332952	793600
0	2808	0.400411332952	793088
0	2808	0.400411332952	792576
0	2808	0.400411332952	792064
0	2808	0.400411332952	791552
0	2808	0.400411332952	791040
0	2808	0.400411332952	790528
0	2808	0.400411332952	790016
0	2808	0.400411332952	789504
0	2808	0.400411332952	788992
0	2808	0.400411332952	788480
0	2808	0.400411332952	787968
0	2808	0.400411332952	787456
0	2808	0.400411332952	786944
0	2808	0.400411332952	786432
0	2808	0.400411332952	785920
0	2808	0.400411332952	785408
0	2808	0.400411332952	784896
0	2808	0.400411332952	784384
0	2808	0.400411332952	783872
0	2808	0.400411332952	783360
0	2808	0.400411332952	782848
0	2808	0.400411332952	782336
0	2808	0.400411332952	781824
0	2808	0.400411332952	781312
0	2808	0.400411332952	780800
0	2808	0.400411332952	780288
0	2808	0.400411332952	779776
0	2808	0.400411332952	779264
0	2808	0.400411332952	778752
0	2808	0.400411332952	778240
0	2808	0.400411332952	777728
0	2808	0.400411332952	777216
0	2808	0.400411332952	776704
0	2808	0.400411332952	776192
0	2808	0.400411332952	775680
0	2808	0.400411332952	775168
0	2808	0.400411332952	774656
0	2808	0.400411332952	774144
0	2808	0.400411332952	773632
0	2808	0.400411332952	773120
0	2808	0.400411332952	772608
0	2808	0.400411332952	772096
0	2808	0.400411332952	771584
0	2808	0.400411332952	771072
0	2808	0.400411332952	770560
0	2808	0.400411332952	770048
0	2808	0.400411332952	769536
0	2808	0.400411332952	769024
0	2808	0.400411332952	768512
0	2908	0.40042529134	819200
0	2908	0.40042529134	818688
0	2908	0.40042529134	818176
0	2908	0.40042529134	817664
0	2908	0.40042529134	817152
0	2908	0.40042529134	816640
0	2908	0.40042529134	816128
0	2908	0.40042529134	815616
0	2908	0.40042529134	815104
0	2908	0.40042529134	814592
0	2908	0.40042529134	814080
0	2908	0.40042529134	813568
0	2908	0.40042529134	813056
0	2908	0.40042529134	812544
0	2908	0.40042529134	812032
0	2908	0.40042529134	811520
0	2908	0.40042529134	811008
0	2908	0.40042529134	810496
0	2908	0.40042529134	809984
0	2908	0.40042529134	809472
0	2908	0.40042529134	808960
0	2908	0.40042529134	808448
0	2908	0.40042529134	807936
0	2908	0.40042529134	807424
0	2908	0.40042529134	806912
0	2908	0.40042529134	806400
0	2908	0.40042529134	805888
0	2908	0.40042529134	805376
0	2908	0.40042529134	804864
0	2908	0.40042529134	804352
0	2908	0.40042529134	803840
0	2908	0.40042529134	803328
0	2908	0.40042529134	802816
0	2908	0.40042529134	802304
0	2908	0.40042529134	801792
0	2908	0.40042529134	801280
0	2908	0.40042529134	800768
0	2908	0.40042529134	800256
0	2908	0.40042529134	799744
0	2908	0.40042529134	799232
0	2908	0.40042529134	798720
0	2908	0.40042529134	798208
0	2908	0.40042529134	797696
0	2908	0.40042529134	797184
0	2908	0.40042529134	796672
0	2908	0.40042529134	796160
0	2908	0.40042529134	795648
0	2908	0.40042529134	795136
0	2908	0.40042529134	794624
0	2908	0.40042529134	794112
0	2908	0.40042529134	793600
0	2908	0.40042529134	793088
0	2908	0.40042529134	792576
0	2908	0.40042529134	792064
0	2908	0.40042529134	791552
0	2908	0.40042529134	791040
0	2908	0.40042529134	790528
0	2908	0.40042529134	790016
0	2908	0.40042529134	789504
0	2908	0.40042529134	788992
0	2908	0.40042529134	788480
0	2908	0.40042529134	787968
0	2908	0.40042529134	787456
0	2908	0.40042529134	786944
0	2908	0.40042529134	786432
0	2908	0.40042529134	785920
0	2908	0.40042529134	785408
0	2908	0.40042529134	784896
0	2908	0.40042529134	784384
0	2908	0.40042529134	783872
0	2908	0.40042529134	783360
0	2908	0.40042529134	782848
0	2908	0.40042529134	782336
0	2908	0.40042529134	781824
0	2908	0.40042529134	781312
0	2908	0.40042529134	780800
0	2908	0.40042529134	780288
0	2908	0.40042529134	779776
0	2908	0.40042529134	779264
0	2908	0.40042529134	778752
0	2908	0.40042529134	778240
0	2908	0.40042529134	777728
0	2908	0.40042529134	777216
0	2908	0.40042529134	776704
0	2908	0.40042529134	776192
0	2908	0.40042529134	775680
0	2908	0.40042529134	775168
0	2908	0.40042529134	774656
0	2908	0.40042529134	774144
0	2908	0.40042529134	773632
0	2908	0.40042529134	773120
0	2908	0.40042529134	772608
0	2908	0.40042529134	772096
0	2908	0.40042529134	771584
0	2908	0.40042529134	771072
0	2908	0.40042529134	770560
0	2908	0.40042529134	770048
0	2908	0.40042529134	769536
0	2908	0.40042529134	769024
0	2908	0.40042529134	768512
0	2908	0.40042529134	768000
0	2908	0.40042529134	767488
0	2908	0.40042529134	766976
0	2908	0.40042529134	766464
0	2908	0.40042529134	765952
0	2908	0.40042529134	765440
0	2908	0.40042529134	764928
0	2908	0.40042529134	764416
0	2908	0.40042529134	763904
0	2908	0.40042529134	763392
0	2908	0.40042529134	762880
0	2908	0.40042529134	762368
0	2908	0.40042529134	761856
0	2908	0.40042529134	761344
0	2908	0.40042529134	760832
0	2908	0.40042529134	760320
0	2908	0.40042529134	759808
0	2908	0.40042529134	759296
0	2908	0.40042529134	758784
0	2908	0.40042529134	758272
0	2908	0.40042529134	757760
0	2908	0.40042529134	757248
0	2908	0.40042529134	756736
0	2908	0.40042529134	756224
0	2908	0.40042529134	755712
0	2908	0.40042529134	755200
0	2908	0.40042529134	754688
0	2908	0.40042529134	754176
0	2908	0.40042529134	753664
0	2908	0.40042529134	753152
0	2908	0.40042529134	752640
0	2908	0.40042529134	752128
0	2908	0.40042529134	751616
0	2908	0.40042529134	751104
0	2908	0.40042529134	750592
0	2908	0.40042529134	750080
0	2908	0.40042529134	749568
0	2908	0.40042529134	749056
0	2908	0.40042529134	748544
0	2908	0.40042529134	748032
0	2908	0.40042529134	747520
0	2908	0.40042529134	747008
0	2908	0.40042529134	746496
0	2908	0.40042529134	745984
0	2908	0.40042529134	745472
0	2908	0.40042529134	744960
0	2908	0.40042529134	744448
0	2908	0.40042529134	743936
0	2908	0.40042529134	743424
0	2908	0.40042529134	742912
0	2908	0.40042529134	742400
0	2908	0.40042529134	741888
0	2908	0.40042529134	741376
0	2908	0.40042529134	740864
0	2908	0.40042529134	740352
0	2908	0.40042529134	739840
0	2908	0.40042529134	739328
0	2908	0.40042529134	738816
0	2908	0.40042529134	738304
0	2908	0.40042529134	737792
0	2908	0.40042529134	737280
0	2908	0.40042529134	736768
0	2908	0.40042529134	736256
0	2908	0.40042529134	735744
0	2908	0.40042529134	735232
0	2908	0.40042529134	734720
0	2908	0.40042529134	734208
0	2908	0.40042529134	733696
0	2908	0.40042529134	733184
0	2908	0.40042529134	732672
0	2908	0.40042529134	732160
0	2908	0.40042529134	731648
0	2908	0.40042529134	731136
0	2908	0.40042529134	730624
0	2908	0.40042529134	730112
0	2908	0.40042529134	729600
0	2908	0.40042529134	729088
0	2908	0.40042529134	728576
0	2908	0.40042529134	728064
0	2908	0.40042529134	727552
0	2908	0.40042529134	727040
0	2908	0.40042529134	726528
0	2908	0.40042529134	726016
0	2908	0.40042529134	725504
0	2908	0.40042529134	724992
0	2908	0.40042529134	724480
0	2908	0.40042529134	723968
0	2908	0.40042529134	723456
0	2908	0.40042529134	722944
0	2908	0.40042529134	722432
0	2908	0.40042529134	721920
0	2908	0.40042529134	721408
0	2908	0.40042529134	720896
0	2908	0.40042529134	720384
0	2908	0.40042529134	719872
0	2908	0.40042529134	719360
0	2908	0.40042529134	718848
0	2908	0.40042529134	718336
0	2908	0.40042529134	717824
0	2908	0.40042529134	717312
0	2908	0.40042529134	716800
0	2908	0.40042529134	716288
0	2908	0.40042529134	715776
0	2908	0.40042529134	715264
0	2908	0.40042529134	714752
0	2908	0.40042529134	714240
0	2908	0.40042529134	713728
0	2908	0.40042529134	713216
0	2908	0.40042529134	712704
0	2908	0.40042529134	712192
0	2908	0.40042529134	711680
0	2908	0.40042529134	711168
0	2908	0.40042529134	710656
0	2908	0.40042529134	710144
0	2908	0.40042529134	709632
0	2908	0.40042529134	709120
0	2908	0.40042529134	708608
0	2908	0.40042529134	708096
0	2908	0.40042529134	707584
0	2908	0.40042529134	707072
0	2908	0.40042529134	706560
0	2908	0.40042529134	706048
0	2908	0.40042529134	705536
0	2908	0.40042529134	705024
0	2908	0.40042529134	704512
0	2908	0.40042529134	704000
0	2908	0.40042529134	703488
0	2908	0.40042529134	702976
0	2908	0.40042529134	702464
0	2908	0.40042529134	701952
0	2908	0.40042529134	701440
0	2908	0.40042529134	700928
0	2908	0.40042529134	700416
0	2908	0.40042529134	699904
0	2908	0.40042529134	699392
0	2908	0.40042529134	698880
0	2908	0.40042529134	698368
0	2908	0.40042529134	697856
0	2908	0.40042529134	697344
0	2908	0.40042529134	696832
0	2908	0.40042529134	696320
0	2908	0.40042529134	695808
0	2908	0.40042529134	695296
0	2908	0.40042529134	694784
0	2908	0.40042529134	694272
0	2908	0.40042529134	693760
0	2908	0.40042529134	693248
0	2908	0.40042529134	692736
0	2908	0.40042529134	692224
0	2908	0.40042529134	691712
0	2908	0.40042529134	691200
0	2908	0.40042529134	690688
0	2908	0.40042529134	690176
0	2908	0.40042529134	689664
0	2908	0.40042529134	689152
0	2908	0.40042529134	688640
0	2908	0.40042529134	688128
0	2908	0.40042529134	687616
0	2908	0.40042529134	687104
0	2908	0.40042529134	686592
0	2908	0.40042529134	686080
0	2908	0.40042529134	685568
0	2908	0.40042529134	685056
0	2908	0.40042529134	684544
0	2908	0.40042529134	684032
0	2908	0.40042529134	683520
0	2908	0.40042529134	683008
0	2908	0.40042529134	682496
0	2908	0.40042529134	681984
0	2908	0.40042529134	681472
0	2908	0.40042529134	680960
0	2908	0.40042529134	680448
0	2908	0.40042529134	679936
0	2908	0.40042529134	679424
0	2908	0.40042529134	678912
0	2908	0.40042529134	678400
0	2908	0.40042529134	677888
0	2908	0.40042529134	677376
0	2908	0.40042529134	676864
0	2908	0.40042529134	676352
0	2908	0.40042529134	675840
0	2908	0.40042529134	675328
0	2908	0.40042529134	674816
0	2908	0.40042529134	674304
0	2908	0.40042529134	673792
0	2908	0.40042529134	673280
0	2908	0.40042529134	672768
0	2908	0.40042529134	672256
0	2908	0.40042529134	671744
0	2908	0.40042529134	671232
0	2908	0.40042529134	670720
0	2908	0.40042529134	670208
0	2908	0.40042529134	669696
0	2908	0.40042529134	669184
0	2908	0.40042529134	668672
0	2908	0.40042529134	668160
0	2908	0.40042529134	667648
0	2908	0.40042529134	667136
0	2908	0.40042529134	666624
0	2908	0.40042529134	666112
0	3108	0.400432926596	768000
0	3108	0.400432926596	767488
0	3108	0.400432926596	766976
0	3108	0.400432926596	766464
0	3108	0.400432926596	765952
0	3108	0.400432926596	765440
0	3108	0.400432926596	764928
0	3108	0.400432926596	764416
0	3108	0.400432926596	763904
0	3108	0.400432926596	763392
0	3108	0.400432926596	762880
0	3108	0.400432926596	762368
0	3108	0.400432926596	761856
0	3108	0.400432926596	761344
0	3108	0.400432926596	760832
0	3108	0.400432926596	760320
0	3108	0.400432926596	759808
0	3108	0.400432926596	759296
0	3108	0.400432926596	758784
0	3108	0.400432926596	758272
0	3108	0.400432926596	757760
0	3108	0.400432926596	757248
0	3108	0.400432926596	756736
0	3108	0.400432926596	756224
0	3108	0.400432926596	755712
0	3108	0.400432926596	755200
0	3108	0.400432926596	754688
0	3108	0.400432926596	754176
0	3108	0.400432926596	753664
0	3108	0.400432926596	753152
0	3108	0.400432926596	752640
0	3108	0.400432926596	752128
0	3108	0.400432926596	751616
0	3108	0.400432926596	751104
0	3108	0.400432926596	750592
0	3108	0.400432926596	750080
0	3108	0.400432926596	749568
0	3108	0.400432926596	749056
0	3108	0.400432926596	748544
0	3108	0.400432926596	748032
0	3108	0.400432926596	747520
0	3108	0.400432926596	747008
0	3108	0.400432926596	746496
0	3108	0.400432926596	745984
0	3108	0.400432926596	745472
0	3108	0.400432926596	744960
0	3108	0.400432926596	744448
0	3108	0.400432926596	743936
0	3108	0.400432926596	743424
0	3108	0.400432926596	742912
0	3108	0.400432926596	742400
0	3108	0.400432926596	741888
0	3108	0.400432926596	741376
0	3108	0.400432926596	740864
0	3108	0.400432926596	740352
0	3108	0.400432926596	739840
0	3108	0.400432926596	739328
0	3108	0.400432926596	738816
0	3108	0.400432926596	738304
0	3108	0.400432926596	737792
0	3108	0.400432926596	737280
0	3108	0.400432926596	736768
0	3108	0.400432926596	736256
0	3108	0.400432926596	735744
0	3108	0.400432926596	735232
0	3108	0.400432926596	734720
0	3108	0.400432926596	734208
0	3108	0.400432926596	733696
0	3108	0.400432926596	733184
0	3108	0.400432926596	732672
0	3108	0.400432926596	732160
0	3108	0.400432926596	731648
0	3108	0.400432926596	731136
0	3108	0.400432926596	730624
0	3108	0.400432926596	730112
0	3108	0.400432926596	729600
0	3108	0.400432926596	729088
0	3108	0.400432926596	728576
0	3108	0.400432926596	728064
0	3108	0.400432926596	727552
0	3108	0.400432926596	727040
0	3108	0.400432926596	726528
0	3108	0.400432926596	726016
0	3108	0.400432926596	725504
0	3108	0.400432926596	724992
0	3108	0.400432926596	724480
0	3108	0.400432926596	723968
0	3108	0.400432926596	723456
0	3108	0.400432926596	722944
0	3108	0.400432926596	722432
0	3108	0.400432926596	721920
0	3108	0.400432926596	721408
0	3108	0.400432926596	720896
0	3108	0.400432926596	720384
0	3108	0.400432926596	719872
0	3108	0.400432926596	719360
0	3108	0.400432926596	718848
0	3108	0.400432926596	718336
0	3108	0.400432926596	717824
0	3108	0.400432926596	717312
0	3408	0.400438196935	870400
0	3408	0.400438196935	869888
0	3408	0.400438196935	869376
0	3408	0.400438196935	868864
0	3408	0.400438196935	868352
0	3408	0.400438196935	867840
0	3408	0.400438196935	867328
0	3408	0.400438196935	866816
0	3408	0.400438196935	866304
0	3408	0.400438196935	865792
0	3408	0.400438196935	865280
0	3408	0.400438196935	864768
0	3408	0.400438196935	864256
0	3408	0.400438196935	863744
0	3408	0.400438196935	863232
0	3408	0.400438196935	862720
0	3408	0.400438196935	862208
0	3408	0.400438196935	861696
0	3408	0.400438196935	861184
0	3408	0.400438196935	860672
0	3408	0.400438196935	860160
0	3408	0.400438196935	859648
0	3408	0.400438196935	859136
0	3408	0.400438196935	858624
0	3408	0.400438196935	858112
0	3408	0.400438196935	857600
0	3408	0.400438196935	857088
0	3408	0.400438196935	856576
0	3408	0.400438196935	856064
0	3408	0.400438196935	855552
0	3408	0.400438196935	855040
0	3408	0.400438196935	854528
0	3408	0.400438196935	854016
0	3408	0.400438196935	853504
0	3408	0.400438196935	852992
0	3408	0.400438196935	852480
0	3408	0.400438196935	851968
0	3408	0.400438196935	851456
0	3408	0.400438196935	850944
0	3408	0.400438196935	850432
0	3408	0.400438196935	849920
0	3408	0.400438196935	849408
0	3408	0.400438196935	848896
0	3408	0.400438196935	848384
0	3408	0.400438196935	847872
0	3408	0.400438196935	847360
0	3408	0.400438196935	846848
0	3408	0.400438196935	846336
0	3408	0.400438196935	845824
0	3408	0.400438196935	845312
0	3408	0.400438196935	844800
0	3408	0.400438196935	844288
0	3408	0.400438196935	843776
0	3408	0.400438196935	843264
0	3408	0.400438196935	842752
0	3408	0.400438196935	842240
0	3408	0.400438196935	841728
0	3408	0.400438196935	841216
0	3408	0.400438196935	840704
0	3408	0.400438196935	840192
0	3408	0.400438196935	839680
0	3408	0.400438196935	839168
0	3408	0.400438196935	838656
0	3408	0.400438196935	838144
0	3408	0.400438196935	837632
0	3408	0.400438196935	837120
0	3408	0.400438196935	836608
0	3408	0.400438196935	836096
0	3408	0.400438196935	835584
0	3408	0.400438196935	835072
0	3408	0.400438196935	834560
0	3408	0.400438196935	834048
0	3408	0.400438196935	833536
0	3408	0.400438196935	833024
0	3408	0.400438196935	832512
0	3408	0.400438196935	832000
0	3408	0.400438196935	831488
0	3408	0.400438196935	830976
0	3408	0.400438196935	830464
0	3408	0.400438196935	829952
0	3408	0.400438196935	829440
0	3408	0.400438196935	828928
0	3408	0.400438196935	828416
0	3408	0.400438196935	827904
0	3408	0.400438196935	827392
0	3408	0.400438196935	826880
0	3408	0.400438196935	826368
0	3408	0.400438196935	825856
0	3408	0.400438196935	825344
0	3408	0.400438196935	824832
0	3408	0.400438196935	824320
0	3408	0.400438196935	823808
0	3408	0.400438196935	823296
0	3408	0.400438196935	822784
0	3408	0.400438196935	822272
0	3408	0.400438196935	821760
0	3408	0.400438196935	821248
0	3408	0.400438196935	820736
0	3408	0.400438196935	820224
0	3408	0.400438196935	819712
0	3508	0.400456460305	870400
0	3508	0.400456460305	869888
0	3508	0.400456460305	869376
0	3508	0.400456460305	868864
0	3508	0.400456460305	868352
0	3508	0.400456460305	867840
0	3508	0.400456460305	867328
0	3508	0.400456460305	866816
0	3508	0.400456460305	866304
0	3508	0.400456460305	865792
0	3508	0.400456460305	865280
0	3508	0.400456460305	864768
0	3508	0.400456460305	864256
0	3508	0.400456460305	863744
0	3508	0.400456460305	863232
0	3508	0.400456460305	862720
0	3508	0.400456460305	862208
0	3508	0.400456460305	861696
0	3508	0.400456460305	861184
0	3508	0.400456460305	860672
0	3508	0.400456460305	860160
0	3508	0.400456460305	859648
0	3508	0.400456460305	859136
0	3508	0.400456460305	858624
0	3508	0.400456460305	858112
0	3508	0.400456460305	857600
0	3508	0.400456460305	857088
0	3508	0.400456460305	856576
0	3508	0.400456460305	856064
0	3508	0.400456460305	855552
0	3508	0.400456460305	855040
0	3508	0.400456460305	854528
0	3508	0.400456460305	854016
0	3508	0.400456460305	853504
0	3508	0.400456460305	852992
0	3508	0.400456460305	852480
0	3508	0.400456460305	851968
0	3508	0.400456460305	851456
0	3508	0.400456460305	850944
0	3508	0.400456460305	850432
0	3508	0.400456460305	849920
0	3508	0.400456460305	849408
0	3508	0.400456460305	848896
0	3508	0.400456460305	848384
0	3508	0.400456460305	847872
0	3508	0.400456460305	847360
0	3508	0.400456460305	846848
0	3508	0.400456460305	846336
0	3508	0.400456460305	845824
0	3508	0.400456460305	845312
0	3508	0.400456460305	844800
0	3508	0.400456460305	844288
0	3508	0.400456460305	843776
0	3508	0.400456460305	843264
0	3508	0.400456460305	842752
0	3508	0.400456460305	842240
0	3508	0.400456460305	841728
0	3508	0.400456460305	841216
0	3508	0.400456460305	840704
0	3508	0.400456460305	840192
0	3508	0.400456460305	839680
0	3508	0.400456460305	839168
0	3508	0.400456460305	838656
0	3508	0.400456460305	838144
0	3508	0.400456460305	837632
0	3508	0.400456460305	837120
0	3508	0.400456460305	836608
0	3508	0.400456460305	836096
0	3508	0.400456460305	835584
0	3508	0.400456460305	835072
0	3508	0.400456460305	834560
0	3508	0.400456460305	834048
0	3508	0.400456460305	833536
0	3508	0.400456460305	833024
0	3508	0.400456460305	832512
0	3508	0.400456460305	832000
0	3508	0.400456460305	831488
0	3508	0.400456460305	830976
0	3508	0.400456460305	830464
0	3508	0.400456460305	829952
0	3508	0.400456460305	829440
0	3508	0.400456460305	828928
0	3508	0.400456460305	828416
0	3508	0.400456460305	827904
0	3508	0.400456460305	827392
0	3508	0.400456460305	826880
0	3508	0.400456460305	826368
0	3508	0.400456460305	825856
0	3508	0.400456460305	825344
0	3508	0.400456460305	824832
0	3508	0.400456460305	824320
0	3508	0.400456460305	823808
0	3508	0.400456460305	823296
0	3508	0.400456460305	822784
0	3508	0.400456460305	822272
0	3508	0.400456460305	821760
0	3508	0.400456460305	821248
0	3508	0.400456460305	820736
0	3508	0.400456460305	820224
0	3508	0.400456460305	819712
0	3508	0.400456460305	819200
0	3508	0.400456460305	818688
0	3508	0.400456460305	818176
0	3508	0.400456460305	817664
0	3508	0.400456460305	817152
0	3508	0.400456460305	816640
0	3508	0.400456460305	816128
0	3508	0.400456460305	815616
0	3508	0.400456460305	815104
0	3508	0.400456460305	814592
0	3508	0.400456460305	814080
0	3508	0.400456460305	813568
0	3508	0.400456460305	813056
0	3508	0.400456460305	812544
0	3508	0.400456460305	812032
0	3508	0.400456460305	811520
0	3508	0.400456460305	811008
0	3508	0.400456460305	810496
0	3508	0.400456460305	809984
0	3508	0.400456460305	809472
0	3508	0.400456460305	808960
0	3508	0.400456460305	808448
0	3508	0.400456460305	807936
0	3508	0.400456460305	807424
0	3508	0.400456460305	806912
0	3508	0.400456460305	806400
0	3508	0.400456460305	805888
0	3508	0.400456460305	805376
0	3508	0.400456460305	804864
0	3508	0.400456460305	804352
0	3508	0.400456460305	803840
0	3508	0.400456460305	803328
0	3508	0.400456460305	802816
0	3508	0.400456460305	802304
0	3508	0.400456460305	801792
0	3508	0.400456460305	801280
0	3508	0.400456460305	800768
0	3508	0.400456460305	800256
0	3508	0.400456460305	799744
0	3508	0.400456460305	799232
0	3508	0.400456460305	798720
0	3508	0.400456460305	798208
0	3508	0.400456460305	797696
0	3508	0.400456460305	797184
0	3508	0.400456460305	796672
0	3508	0.400456460305	796160
0	3508	0.400456460305	795648
0	3508	0.400456460305	795136
0	3508	0.400456460305	794624
0	3508	0.400456460305	794112
0	3508	0.400456460305	793600
0	3508	0.400456460305	793088
0	3508	0.400456460305	792576
0	3508	0.400456460305	792064
0	3508	0.400456460305	791552
0	3508	0.400456460305	791040
0	3508	0.400456460305	790528
0	3508	0.400456460305	790016
0	3508	0.400456460305	789504
0	3508	0.400456460305	788992
0	3508	0.400456460305	788480
0	3508	0.400456460305	787968
0	3508	0.400456460305	787456
0	3508	0.400456460305	786944
0	3508	0.400456460305	786432
0	3508	0.400456460305	785920
0	3508	0.400456460305	785408
0	3508	0.400456460305	784896
0	3508	0.400456460305	784384
0	3508	0.400456460305	783872
0	3508	0.400456460305	783360
0	3508	0.400456460305	782848
0	3508	0.400456460305	782336
0	3508	0.400456460305	781824
0	3508	0.400456460305	781312
0	3508	0.400456460305	780800
0	3508	0.400456460305	780288
0	3508	0.400456460305	779776
0	3508	0.400456460305	779264
0	3508	0.400456460305	778752
0	3508	0.400456460305	778240
0	3508	0.400456460305	777728
0	3508	0.400456460305	777216
0	3508	0.400456460305	776704
0	3508	0.400456460305	776192
0	3508	0.400456460305	775680
0	3508	0.400456460305	775168
0	3508	0.400456460305	774656
0	3508	0.400456460305	774144
0	3508	0.400456460305	773632
0	3508	0.400456460305	773120
0	3508	0.400456460305	772608
0	3508	0.400456460305	772096
0	3508	0.400456460305	771584
0	3508	0.400456460305	771072
0	3508	0.400456460305	770560
0	3508	0.400456460305	770048
0	3508	0.400456460305	769536
0	3508	0.400456460305	769024
0	3508	0.400456460305	768512
0	3508	0.400456460305	768000
0	3508	0.400456460305	767488
0	3508	0.400456460305	766976
0	3508	0.400456460305	766464
0	3508	0.400456460305	765952
0	3508	0.400456460305	765440
0	3508	0.400456460305	764928
0	3508	0.400456460305	764416
0	3508	0.400456460305	763904
0	3508	0.400456460305	763392
0	3508	0.400456460305	762880
0	3508	0.400456460305	762368
0	3508	0.400456460305	761856
0	3508	0.400456460305	761344
0	3508	0.400456460305	760832
0	3508	0.400456460305	760320
0	3508	0.400456460305	759808
0	3508	0.400456460305	759296
0	3508	0.400456460305	758784
0	3508	0.400456460305	758272
0	3508	0.400456460305	757760
0	3508	0.400456460305	757248
0	3508	0.400456460305	756736
0	3508	0.400456460305	756224
0	3508	0.400456460305	755712
0	3508	0.400456460305	755200
0	3508	0.400456460305	754688
0	3508	0.400456460305	754176
0	3508	0.400456460305	753664
0	3508	0.400456460305	753152
0	3508	0.400456460305	752640
0	3508	0.400456460305	752128
0	3508	0.400456460305	751616
0	3508	0.400456460305	751104
0	3508	0.400456460305	750592
0	3508	0.400456460305	750080
0	3508	0.400456460305	749568
0	3508	0.400456460305	749056
0	3508	0.400456460305	748544
0	3508	0.400456460305	748032
0	3508	0.400456460305	747520
0	3508	0.400456460305	747008
0	3508	0.400456460305	746496
0	3508	0.400456460305	745984
0	3508	0.400456460305	745472
0	3508	0.400456460305	744960
0	3508	0.400456460305	744448
0	3508	0.400456460305	743936
0	3508	0.400456460305	743424
0	3508	0.400456460305	742912
0	3508	0.400456460305	742400
0	3508	0.400456460305	741888
0	3508	0.400456460305	741376
0	3508	0.400456460305	740864
0	3508	0.400456460305	740352
0	3508	0.400456460305	739840
0	3508	0.400456460305	739328
0	3508	0.400456460305	738816
0	3508	0.400456460305	738304
0	3508	0.400456460305	737792
0	3508	0.400456460305	737280
0	3508	0.400456460305	736768
0	3508	0.400456460305	736256
0	3508	0.400456460305	735744
0	3508	0.400456460305	735232
0	3508	0.400456460305	734720
0	3508	0.400456460305	734208
0	3508	0.400456460305	733696
0	3508	0.400456460305	733184
0	3508	0.400456460305	732672
0	3508	0.400456460305	732160
0	3508	0.400456460305	731648
0	3508	0.400456460305	731136
0	3508	0.400456460305	730624
0	3508	0.400456460305	730112
0	3508	0.400456460305	729600
0	3508	0.400456460305	729088
0	3508	0.400456460305	728576
0	3508	0.400456460305	728064
0	3508	0.400456460305	727552
0	3508	0.400456460305	727040
0	3508	0.400456460305	726528
0	3508	0.400456460305	726016
0	3508	0.400456460305	725504
0	3508	0.400456460305	724992
0	3508	0.400456460305	724480
0	3508	0.400456460305	723968
0	3508	0.400456460305	723456
0	3508	0.400456460305	722944
0	3508	0.400456460305	722432
0	3508	0.400456460305	721920
0	3508	0.400456460305	721408
0	3508	0.400456460305	720896
0	3508	0.400456460305	720384
0	3508	0.400456460305	719872
0	3508	0.400456460305	719360
0	3508	0.400456460305	718848
0	3508	0.400456460305	718336
0	3508	0.400456460305	717824
0	3508	0.400456460305	717312
0	3508	0.400456460305	716800
0	3508	0.400456460305	716288
0	3508	0.400456460305	715776
0	3508	0.400456460305	715264
0	3508	0.400456460305	714752
0	3508	0.400456460305	714240
0	3508	0.400456460305	713728
0	3508	0.400456460305	713216
0	3508	0.400456460305	712704
0	3508	0.400456460305	712192
0	3508	0.400456460305	711680
0	3508	0.400456460305	711168
0	3508	0.400456460305	710656
0	3508	0.400456460305	710144
0	3508	0.400456460305	709632
0	3508	0.400456460305	709120
0	3508	0.400456460305	708608
0	3508	0.400456460305	708096
0	3508	0.400456460305	707584
0	3508	0.400456460305	707072
0	3508	0.400456460305	706560
0	3508	0.400456460305	706048
0	3508	0.400456460305	705536
0	3508	0.400456460305	705024
0	3508	0.400456460305	704512
0	3508	0.400456460305	704000
0	3508	0.400456460305	703488
0	3508	0.400456460305	702976
0	3508	0.400456460305	702464
0	3508	0.400456460305	701952
0	3508	0.400456460305	701440
0	3508	0.400456460305	700928
0	3508	0.400456460305	700416
0	3508	0.400456460305	699904
0	3508	0.400456460305	699392
0	3508	0.400456460305	698880
0	3508	0.400456460305	698368
0	3508	0.400456460305	697856
0	3508	0.400456460305	697344
0	3508	0.400456460305	696832
0	3508	0.400456460305	696320
0	3508	0.400456460305	695808
0	3508	0.400456460305	695296
0	3508	0.400456460305	694784
0	3508	0.400456460305	694272
0	3508	0.400456460305	693760
0	3508	0.400456460305	693248
0	3508	0.400456460305	692736
0	3508	0.400456460305	692224
0	3508	0.400456460305	691712
0	3508	0.400456460305	691200
0	3508	0.400456460305	690688
0	3508	0.400456460305	690176
0	3508	0.400456460305	689664
0	3508	0.400456460305	689152
0	3508	0.400456460305	688640
0	3508	0.400456460305	688128
0	3508	0.400456460305	687616
0	3508	0.400456460305	687104
0	3508	0.400456460305	686592
0	3508	0.400456460305	686080
0	3508	0.400456460305	685568
0	3508	0.400456460305	685056
0	3508	0.400456460305	684544
0	3508	0.400456460305	684032
0	3508	0.400456460305	683520
0	3508	0.400456460305	683008
0	3508	0.400456460305	682496
0	3508	0.400456460305	681984
0	3508	0.400456460305	681472
0	3508	0.400456460305	680960
0	3508	0.400456460305	680448
0	3508	0.400456460305	679936
0	3508	0.400456460305	679424
0	3508	0.400456460305	678912
0	3508	0.400456460305	678400
0	3508	0.400456460305	677888
0	3508	0.400456460305	677376
0	3508	0.400456460305	676864
0	3508	0.400456460305	676352
0	3508	0.400456460305	675840
0	3508	0.400456460305	675328
0	3508	0.400456460305	674816
0	3508	0.400456460305	674304
0	3508	0.400456460305	673792
0	3508	0.400456460305	673280
0	3508	0.400456460305	672768
0	3508	0.400456460305	672256
0	3508	0.400456460305	671744
0	3508	0.400456460305	671232
0	3508	0.400456460305	670720
0	3508	0.400456460305	670208
0	3508	0.400456460305	669696
0	3508	0.400456460305	669184
0	3508	0.400456460305	668672
0	3508	0.400456460305	668160
0	3508	0.400456460305	667648
0	3508	0.400456460305	667136
0	3508	0.400456460305	666624
0	3508	0.400456460305	666112
0	3508	0.400456460305	665600
0	3508	0.400456460305	665088
0	3508	0.400456460305	664576
0	3508	0.400456460305	664064
0	3508	0.400456460305	663552
0	3508	0.400456460305	663040
0	3508	0.400456460305	662528
0	3508	0.400456460305	662016
0	3508	0.400456460305	661504
0	3508	0.400456460305	660992
0	3508	0.400456460305	660480
0	3508	0.400456460305	659968
0	3508	0.400456460305	659456
0	3508	0.400456460305	658944
0	3508	0.400456460305	658432
0	3508	0.400456460305	657920
0	3508	0.400456460305	657408
0	3508	0.400456460305	656896
0	3508	0.400456460305	656384
0	3508	0.400456460305	655872
0	3508	0.400456460305	655360
0	3508	0.400456460305	654848
0	3508	0.400456460305	654336
0	3508	0.400456460305	653824
0	3508	0.400456460305	653312
0	3508	0.400456460305	652800
0	3508	0.400456460305	652288
0	3508	0.400456460305	651776
0	3508	0.400456460305	651264
0	3508	0.400456460305	650752
0	3508	0.400456460305	650240
0	3508	0.400456460305	649728
0	3508	0.400456460305	649216
0	3508	0.400456460305	648704
0	3508	0.400456460305	648192
0	3508	0.400456460305	647680
0	3508	0.400456460305	647168
0	3508	0.400456460305	646656
0	3508	0.400456460305	646144
0	3508	0.400456460305	645632
0	3508	0.400456460305	645120
0	3508	0.400456460305	644608
0	3508	0.400456460305	644096
0	3508	0.400456460305	643584
0	3508	0.400456460305	643072
0	3508	0.400456460305	642560
0	3508	0.400456460305	642048
0	3508	0.400456460305	641536
0	3508	0.400456460305	641024
0	3508	0.400456460305	640512
0	3508	0.400456460305	640000
0	3508	0.400456460305	639488
0	3508	0.400456460305	638976
0	3508	0.400456460305	638464
0	3508	0.400456460305	637952
0	3508	0.400456460305	637440
0	3508	0.400456460305	636928
0	3508	0.400456460305	636416
0	3508	0.400456460305	635904
0	3508	0.400456460305	635392
0	3508	0.400456460305	634880
0	3508	0.400456460305	634368
0	3508	0.400456460305	633856
0	3508	0.400456460305	633344
0	3508	0.400456460305	632832
0	3508	0.400456460305	632320
0	3508	0.400456460305	631808
0	3508	0.400456460305	631296
0	3508	0.400456460305	630784
0	3508	0.400456460305	630272
0	3508	0.400456460305	629760
0	3508	0.400456460305	629248
0	3508	0.400456460305	628736
0	3508	0.400456460305	628224
0	3508	0.400456460305	627712
0	3508	0.400456460305	627200
0	3508	0.400456460305	626688
0	3508	0.400456460305	626176
0	3508	0.400456460305	625664
0	3508	0.400456460305	625152
0	3508	0.400456460305	624640
0	3508	0.400456460305	624128
0	3508	0.400456460305	623616
0	3508	0.400456460305	623104
0	3508	0.400456460305	622592
0	3508	0.400456460305	622080
0	3508	0.400456460305	621568
0	3508	0.400456460305	621056
0	3508	0.400456460305	620544
0	3508	0.400456460305	620032
0	3508	0.400456460305	619520
0	3508	0.400456460305	619008
0	3508	0.400456460305	618496
0	3508	0.400456460305	617984
0	3508	0.400456460305	617472
0	3508	0.400456460305	616960
0	3508	0.400456460305	616448
0	3508	0.400456460305	615936
0	3508	0.400456460305	615424
0	3508	0.400456460305	614912
0	3508	0.400456460305	614400
0	3508	0.400456460305	613888
0	3508	0.400456460305	613376
0	3508	0.400456460305	612864
0	3508	0.400456460305	612352
0	3508	0.400456460305	611840
0	3508	0.400456460305	611328
0	3508	0.400456460305	610816
0	3508	0.400456460305	610304
0	3508	0.400456460305	609792
0	3508	0.400456460305	609280
0	3508	0.400456460305	608768
0	3508	0.400456460305	608256
0	3508	0.400456460305	607744
0	3508	0.400456460305	607232
0	3508	0.400456460305	606720
0	3508	0.400456460305	606208
0	3508	0.400456460305	605696
0	3508	0.400456460305	605184
0	3508	0.400456460305	604672
0	3508	0.400456460305	604160
0	3508	0.400456460305	603648
0	3508	0.400456460305	603136
0	3508	0.400456460305	602624
0	3508	0.400456460305	602112
0	3508	0.400456460305	601600
0	3508	0.400456460305	601088
0	3508	0.400456460305	600576
0	3508	0.400456460305	600064
0	3508	0.400456460305	599552
0	3508	0.400456460305	599040
0	3508	0.400456460305	598528
0	3508	0.400456460305	598016
0	3508	0.400456460305	597504
0	3508	0.400456460305	596992
0	3508	0.400456460305	596480
0	3508	0.400456460305	595968
0	3508	0.400456460305	595456
0	3508	0.400456460305	594944
0	3508	0.400456460305	594432
0	3508	0.400456460305	593920
0	3508	0.400456460305	593408
0	3508	0.400456460305	592896
0	3508	0.400456460305	592384
0	3508	0.400456460305	591872
0	3508	0.400456460305	591360
0	3508	0.400456460305	590848
0	3508	0.400456460305	590336
0	3508	0.400456460305	589824
0	3508	0.400456460305	589312
0	3508	0.400456460305	588800
0	3508	0.400456460305	588288
0	3508	0.400456460305	587776
0	3508	0.400456460305	587264
0	3508	0.400456460305	586752
0	3508	0.400456460305	586240
0	3508	0.400456460305	585728
0	3508	0.400456460305	585216
0	3508	0.400456460305	584704
0	3508	0.400456460305	584192
0	3508	0.400456460305	583680
0	3508	0.400456460305	583168
0	3508	0.400456460305	582656
0	3508	0.400456460305	582144
0	3508	0.400456460305	581632
0	3508	0.400456460305	581120
0	3508	0.400456460305	580608
0	3508	0.400456460305	580096
0	3508	0.400456460305	579584
0	3508	0.400456460305	579072
0	3508	0.400456460305	578560
0	3508	0.400456460305	578048
0	3508	0.400456460305	577536
0	3508	0.400456460305	577024
0	3508	0.400456460305	576512
0	3508	0.400456460305	576000
0	3508	0.400456460305	575488
0	3508	0.400456460305	574976
0	3508	0.400456460305	574464
0	3508	0.400456460305	573952
0	3508	0.400456460305	573440
0	3508	0.400456460305	572928
0	3508	0.400456460305	572416
0	3508	0.400456460305	571904
0	3508	0.400456460305	571392
0	3508	0.400456460305	570880
0	3508	0.400456460305	570368
0	3508	0.400456460305	569856
0	3508	0.400456460305	569344
0	3508	0.400456460305	568832
0	3508	0.400456460305	568320
0	3508	0.400456460305	567808
0	3508	0.400456460305	567296
0	3508	0.400456460305	566784
0	3508	0.400456460305	566272
0	3508	0.400456460305	565760
0	3508	0.400456460305	565248
0	3508	0.400456460305	564736
0	3508	0.400456460305	564224
0	3508	0.400456460305	563712
0	3608	0.400479245187	614400
0	3608	0.400479245187	613888
0	3608	0.400479245187	613376
0	3608	0.400479245187	612864
0	3608	0.400479245187	612352
0	3608	0.400479245187	611840
0	3608	0.400479245187	611328
0	3608	0.400479245187	610816
0	3608	0.400479245187	610304
0	3608	0.400479245187	609792
0	3608	0.400479245187	609280
0	3608	0.400479245187	608768
0	3608	0.400479245187	608256
0	3608	0.400479245187	607744
0	3608	0.400479245187	607232
0	3608	0.400479245187	606720
0	3608	0.400479245187	606208
0	3608	0.400479245187	605696
0	3608	0.400479245187	605184
0	3608	0.400479245187	604672
0	3608	0.400479245187	604160
0	3608	0.400479245187	603648
0	3608	0.400479245187	603136
0	3608	0.400479245187	602624
0	3608	0.400479245187	602112
0	3608	0.400479245187	601600
0	3608	0.400479245187	601088
0	3608	0.400479245187	600576
0	3608	0.400479245187	600064
0	3608	0.400479245187	599552
0	3608	0.400479245187	599040
0	3608	0.400479245187	598528
0	3608	0.400479245187	598016
0	3608	0.400479245187	597504
0	3608	0.400479245187	596992
0	3608	0.400479245187	596480
0	3608	0.400479245187	595968
0	3608	0.400479245187	595456
0	3608	0.400479245187	594944
0	3608	0.400479245187	594432
0	3608	0.400479245187	593920
0	3608	0.400479245187	593408
0	3608	0.400479245187	592896
0	3608	0.400479245187	592384
0	3608	0.400479245187	591872
0	3608	0.400479245187	591360
0	3608	0.400479245187	590848
0	3608	0.400479245187	590336
0	3608	0.400479245187	589824
0	3608	0.400479245187	589312
0	3608	0.400479245187	588800
0	3608	0.400479245187	588288
0	3608	0.400479245187	587776
0	3608	0.400479245187	587264
0	3608	0.400479245187	586752
0	3608	0.400479245187	586240
0	3608	0.400479245187	585728
0	3608	0.400479245187	585216
0	3608	0.400479245187	584704
0	3608	0.400479245187	584192
0	3608	0.400479245187	583680
0	3608	0.400479245187	583168
0	3608	0.400479245187	582656
0	3608	0.400479245187	582144
0	3608	0.400479245187	581632
0	3608	0.400479245187	581120
0	3608	0.400479245187	580608
0	3608	0.400479245187	580096
0	3608	0.400479245187	579584
0	3608	0.400479245187	579072
0	3608	0.400479245187	578560
0	3608	0.400479245187	578048
0	3608	0.400479245187	577536
0	3608	0.400479245187	577024
0	3608	0.400479245187	576512
0	3608	0.400479245187	576000
0	3608	0.400479245187	575488
0	3608	0.400479245187	574976
0	3608	0.400479245187	574464
0	3608	0.400479245187	573952
0	3608	0.400479245187	573440
0	3608	0.400479245187	572928
0	3608	0.400479245187	572416
0	3608	0.400479245187	571904
0	3608	0.400479245187	571392
0	3608	0.400479245187	570880
0	3608	0.400479245187	570368
0	3608	0.400479245187	569856
0	3608	0.400479245187	569344
0	3608	0.400479245187	568832
0	3608	0.400479245187	568320
0	3608	0.400479245187	567808
0	3608	0.400479245187	567296
0	3608	0.400479245187	566784
0	3608	0.400479245187	566272
0	3608	0.400479245187	565760
0	3608	0.400479245187	565248
0	3608	0.400479245187	564736
0	3608	0.400479245187	564224
0	3608	0.400479245187	563712
0	3808	0.400483264621	665600
0	3808	0.400483264621	665088
0	3808	0.400483264621	664576
0	3808	0.400483264621	664064
0	3808	0.400483264621	663552
0	3808	0.400483264621	663040
0	3808	0.400483264621	662528
0	3808	0.400483264621	662016
0	3808	0.400483264621	661504
0	3808	0.400483264621	660992
0	3808	0.400483264621	660480
0	3808	0.400483264621	659968
0	3808	0.400483264621	659456
0	3808	0.400483264621	658944
0	3808	0.400483264621	658432
0	3808	0.400483264621	657920
0	3808	0.400483264621	657408
0	3808	0.400483264621	656896
0	3808	0.400483264621	656384
0	3808	0.400483264621	655872
0	3808	0.400483264621	655360
0	3808	0.400483264621	654848
0	3808	0.400483264621	654336
0	3808	0.400483264621	653824
0	3808	0.400483264621	653312
0	3808	0.400483264621	652800
0	3808	0.400483264621	652288
0	3808	0.400483264621	651776
0	3808	0.400483264621	651264
0	3808	0.400483264621	650752
0	3808	0.400483264621	650240
0	3808	0.400483264621	649728
0	3808	0.400483264621	649216
0	3808	0.400483264621	648704
0	3808	0.400483264621	648192
0	3808	0.400483264621	647680
0	3808	0.400483264621	647168
0	3808	0.400483264621	646656
0	3808	0.400483264621	646144
0	3808	0.400483264621	645632
0	3808	0.400483264621	645120
0	3808	0.400483264621	644608
0	3808	0.400483264621	644096
0	3808	0.400483264621	643584
0	3808	0.400483264621	643072
0	3808	0.400483264621	642560
0	3808	0.400483264621	642048
0	3808	0.400483264621	641536
0	3808	0.400483264621	641024
0	3808	0.400483264621	640512
0	3808	0.400483264621	640000
0	3808	0.400483264621	639488
0	3808	0.400483264621	638976
0	3808	0.400483264621	638464
0	3808	0.400483264621	637952
0	3808	0.400483264621	637440
0	3808	0.400483264621	636928
0	3808	0.400483264621	636416
0	3808	0.400483264621	635904
0	3808	0.400483264621	635392
0	3808	0.400483264621	634880
0	3808	0.400483264621	634368
0	3808	0.400483264621	633856
0	3808	0.400483264621	633344
0	3808	0.400483264621	632832
0	3808	0.400483264621	632320
0	3808	0.400483264621	631808
0	3808	0.400483264621	631296
0	3808	0.400483264621	630784
0	3808	0.400483264621	630272
0	3808	0.400483264621	629760
0	3808	0.400483264621	629248
0	3808	0.400483264621	628736
0	3808	0.400483264621	628224
0	3808	0.400483264621	627712
0	3808	0.400483264621	627200
0	3808	0.400483264621	626688
0	3808	0.400483264621	626176
0	3808	0.400483264621	625664
0	3808	0.400483264621	625152
0	3808	0.400483264621	624640
0	3808	0.400483264621	624128
0	3808	0.400483264621	623616
0	3808	0.400483264621	623104
0	3808	0.400483264621	622592
0	3808	0.400483264621	622080
0	3808	0.400483264621	621568
0	3808	0.400483264621	621056
0	3808	0.400483264621	620544
0	3808	0.400483264621	620032
0	3808	0.400483264621	619520
0	3808	0.400483264621	619008
0	3808	0.400483264621	618496
0	3808	0.400483264621	617984
0	3808	0.400483264621	617472
0	3808	0.400483264621	616960
0	3808	0.400483264621	616448
0	3808	0.400483264621	615936
0	3808	0.400483264621	615424
0	3808	0.400483264621	614912
0	4108	0.400496341405	768000
0	4108	0.400496341405	767488
0	4108	0.400496341405	766976
0	4108	0.400496341405	766464
0	4108	0.400496341405	765952
0	4108	0.400496341405	765440
0	4108	0.400496341405	764928
0	4108	0.400496341405	764416
0	4108	0.400496341405	763904
0	4108	0.400496341405	763392
0	4108	0.400496341405	762880
0	4108	0.400496341405	762368
0	4108	0.400496341405	761856
0	4108	0.400496341405	761344
0	4108	0.400496341405	760832
0	4108	0.400496341405	760320
0	4108	0.400496341405	759808
0	4108	0.400496341405	759296
0	4108	0.400496341405	758784
0	4108	0.400496341405	758272
0	4108	0.400496341405	757760
0	4108	0.400496341405	757248
0	4108	0.400496341405	756736
0	4108	0.400496341405	756224
0	4108	0.400496341405	755712
0	4108	0.400496341405	755200
0	4108	0.400496341405	754688
0	4108	0.400496341405	754176
0	4108	0.400496341405	753664
0	4108	0.400496341405	753152
0	4108	0.400496341405	752640
0	4108	0.400496341405	752128
0	4108	0.400496341405	751616
0	4108	0.400496341405	751104
0	4108	0.400496341405	750592
0	4108	0.400496341405	750080
0	4108	0.400496341405	749568
0	4108	0.400496341405	749056
0	4108	0.400496341405	748544
0	4108	0.400496341405	748032
0	4108	0.400496341405	747520
0	4108	0.400496341405	747008
0	4108	0.400496341405	746496
0	4108	0.400496341405	745984
0	4108	0.400496341405	745472
0	4108	0.400496341405	744960
0	4108	0.400496341405	744448
0	4108	0.400496341405	743936
0	4108	0.400496341405	743424
0	4108	0.400496341405	742912
0	4108	0.400496341405	742400
0	4108	0.400496341405	741888
0	4108	0.400496341405	741376
0	4108	0.400496341405	740864
0	4108	0.400496341405	740352
0	4108	0.400496341405	739840
0	4108	0.400496341405	739328
0	4108	0.400496341405	738816
0	4108	0.400496341405	738304
0	4108	0.400496341405	737792
0	4108	0.400496341405	737280
0	4108	0.400496341405	736768
0	4108	0.400496341405	736256
0	4108	0.400496341405	735744
0	4108	0.400496341405	735232
0	4108	0.400496341405	734720
0	4108	0.400496341405	734208
0	4108	0.400496341405	733696
0	4108	0.400496341405	733184
0	4108	0.400496341405	732672
0	4108	0.400496341405	732160
0	4108	0.400496341405	731648
0	4108	0.400496341405	731136
0	4108	0.400496341405	730624
0	4108	0.400496341405	730112
0	4108	0.400496341405	729600
0	4108	0.400496341405	729088
0	4108	0.400496341405	728576
0	4108	0.400496341405	728064
0	4108	0.400496341405	727552
0	4108	0.400496341405	727040
0	4108	0.400496341405	726528
0	4108	0.400496341405	726016
0	4108	0.400496341405	725504
0	4108	0.400496341405	724992
0	4108	0.400496341405	724480
0	4108	0.400496341405	723968
0	4108	0.400496341405	723456
0	4108	0.400496341405	722944
0	4108	0.400496341405	722432
0	4108	0.400496341405	721920
0	4108	0.400496341405	721408
0	4108	0.400496341405	720896
0	4108	0.400496341405	720384
0	4108	0.400496341405	719872
0	4108	0.400496341405	719360
0	4108	0.400496341405	718848
0	4108	0.400496341405	718336
0	4108	0.400496341405	717824
0	4108	0.400496341405	717312
0	4208	0.400522890729	768000
0	4208	0.400522890729	767488
0	4208	0.400522890729	766976
0	4208	0.400522890729	766464
0	4208	0.400522890729	765952
0	4208	0.400522890729	765440
0	4208	0.400522890729	764928
0	4208	0.400522890729	764416
0	4208	0.400522890729	763904
0	4208	0.400522890729	763392
0	4208	0.400522890729	762880
0	4208	0.400522890729	762368
0	4208	0.400522890729	761856
0	4208	0.400522890729	761344
0	4208	0.400522890729	760832
0	4208	0.400522890729	760320
0	4208	0.400522890729	759808
0	4208	0.400522890729	759296
0	4208	0.400522890729	758784
0	4208	0.400522890729	758272
0	4208	0.400522890729	757760
0	4208	0.400522890729	757248
0	4208	0.400522890729	756736
0	4208	0.400522890729	756224
0	4208	0.400522890729	755712
0	4208	0.400522890729	755200
0	4208	0.400522890729	754688
0	4208	0.400522890729	754176
0	4208	0.400522890729	753664
0	4208	0.400522890729	753152
0	4208	0.400522890729	752640
0	4208	0.400522890729	752128
0	4208	0.400522890729	751616
0	4208	0.400522890729	751104
0	4208	0.400522890729	750592
0	4208	0.400522890729	750080
0	4208	0.400522890729	749568
0	4208	0.400522890729	749056
0	4208	0.400522890729	748544
0	4208	0.400522890729	748032
0	4208	0.400522890729	747520
0	4208	0.400522890729	747008
0	4208	0.400522890729	746496
0	4208	0.400522890729	745984
0	4208	0.400522890729	745472
0	4208	0.400522890729	744960
0	4208	0.400522890729	744448
0	4208	0.400522890729	743936
0	4208	0.400522890729	743424
0	4208	0.400522890729	742912
0	4208	0.400522890729	742400
0	4208	0.400522890729	741888
0	4208	0.400522890729	741376
0	4208	0.400522890729	740864
0	4208	0.400522890729	740352
0	4208	0.400522890729	739840
0	4208	0.400522890729	739328
0	4208	0.400522890729	738816
0	4208	0.400522890729	738304
0	4208	0.400522890729	737792
0	4208	0.400522890729	737280
0	4208	0.400522890729	736768
0	4208	0.400522890729	736256
0	4208	0.400522890729	735744
0	4208	0.400522890729	735232
0	4208	0.400522890729	734720
0	4208	0.400522890729	734208
0	4208	0.400522890729	733696
0	4208	0.400522890729	733184
0	4208	0.400522890729	732672
0	4208	0.400522890729	732160
0	4208	0.400522890729	731648
0	4208	0.400522890729	731136
0	4208	0.400522890729	730624
0	4208	0.400522890729	730112
0	4208	0.400522890729	729600
0	4208	0.400522890729	729088
0	4208	0.400522890729	728576
0	4208	0.400522890729	728064
0	4208	0.400522890729	727552
0	4208	0.400522890729	727040
0	4208	0.400522890729	726528
0	4208	0.400522890729	726016
0	4208	0.400522890729	725504
0	4208	0.400522890729	724992
0	4208	0.400522890729	724480
0	4208	0.400522890729	723968
0	4208	0.400522890729	723456
0	4208	0.400522890729	722944
0	4208	0.400522890729	722432
0	4208	0.400522890729	721920
0	4208	0.400522890729	721408
0	4208	0.400522890729	720896
0	4208	0.400522890729	720384
0	4208	0.400522890729	719872
0	4208	0.400522890729	719360
0	4208	0.400522890729	718848
0	4208	0.400522890729	718336
0	4208	0.400522890729	717824
0	4208	0.400522890729	717312
0	4208	0.400522890729	716800
0	4208	0.400522890729	716288
0	4208	0.400522890729	715776
0	4208	0.400522890729	715264
0	4208	0.400522890729	714752
0	4208	0.400522890729	714240
0	4208	0.400522890729	713728
0	4208	0.400522890729	713216
0	4208	0.400522890729	712704
0	4208	0.400522890729	712192
0	4208	0.400522890729	711680
0	4208	0.400522890729	711168
0	4208	0.400522890729	710656
0	4208	0.400522890729	710144
0	4208	0.400522890729	709632
0	4208	0.400522890729	709120
0	4208	0.400522890729	708608
0	4208	0.400522890729	708096
0	4208	0.400522890729	707584
0	4208	0.400522890729	707072
0	4208	0.400522890729	706560
0	4208	0.400522890729	706048
0	4208	0.400522890729	705536
0	4208	0.400522890729	705024
0	4208	0.400522890729	704512
0	4208	0.400522890729	704000
0	4208	0.400522890729	703488
0	4208	0.400522890729	702976
0	4208	0.400522890729	702464
0	4208	0.400522890729	701952
0	4208	0.400522890729	701440
0	4208	0.400522890729	700928
0	4208	0.400522890729	700416
0	4208	0.400522890729	699904
0	4208	0.400522890729	699392
0	4208	0.400522890729	698880
0	4208	0.400522890729	698368
0	4208	0.400522890729	697856
0	4208	0.400522890729	697344
0	4208	0.400522890729	696832
0	4208	0.400522890729	696320
0	4208	0.400522890729	695808
0	4208	0.400522890729	695296
0	4208	0.400522890729	694784
0	4208	0.400522890729	694272
0	4208	0.400522890729	693760
0	4208	0.400522890729	693248
0	4208	0.400522890729	692736
0	4208	0.400522890729	692224
0	4208	0.400522890729	691712
0	4208	0.400522890729	691200
0	4208	0.400522890729	690688
0	4208	0.400522890729	690176
0	4208	0.400522890729	689664
0	4208	0.400522890729	689152
0	4208	0.400522890729	688640
0	4208	0.400522890729	688128
0	4208	0.400522890729	687616
0	4208	0.400522890729	687104
0	4208	0.400522890729	686592
0	4208	0.400522890729	686080
0	4208	0.400522890729	685568
0	4208	0.400522890729	685056
0	4208	0.400522890729	684544
0	4208	0.400522890729	684032
0	4208	0.400522890729	683520
0	4208	0.400522890729	683008
0	4208	0.400522890729	682496
0	4208	0.400522890729	681984
0	4208	0.400522890729	681472
0	4208	0.400522890729	680960
0	4208	0.400522890729	680448
0	4208	0.400522890729	679936
0	4208	0.400522890729	679424
0	4208	0.400522890729	678912
0	4208	0.400522890729	678400
0	4208	0.400522890729	677888
0	4208	0.400522890729	677376
0	4208	0.400522890729	676864
0	4208	0.400522890729	676352
0	4208	0.400522890729	675840
0	4208	0.400522890729	675328
0	4208	0.400522890729	674816
0	4208	0.400522890729	674304
0	4208	0.400522890729	673792
0	4208	0.400522890729	673280
0	4208	0.400522890729	672768
0	4208	0.400522890729	672256
0	4208	0.400522890729	671744
0	4208	0.400522890729	671232
0	4208	0.400522890729	670720
0	4208	0.400522890729	670208
0	4208	0.400522890729	669696
0	4208	0.400522890729	669184
0	4208	0.400522890729	668672
0	4208	0.400522890729	668160
0	4208	0.400522890729	667648
0	4208	0.400522890729	667136
0	4208	0.400522890729	666624
0	4208	0.400522890729	666112
0	4308	0.400526200819	716800
0	4308	0.400526200819	716288
0	4308	0.400526200819	715776
0	4308	0.400526200819	715264
0	4308	0.400526200819	714752
0	4308	0.400526200819	714240
0	4308	0.400526200819	713728
0	4308	0.400526200819	713216
0	4308	0.400526200819	712704
0	4308	0.400526200819	712192
0	4308	0.400526200819	711680
0	4308	0.400526200819	711168
0	4308	0.400526200819	710656
0	4308	0.400526200819	710144
0	4308	0.400526200819	709632
0	4308	0.400526200819	709120
0	4308	0.400526200819	708608
0	4308	0.400526200819	708096
0	4308	0.400526200819	707584
0	4308	0.400526200819	707072
0	4308	0.400526200819	706560
0	4308	0.400526200819	706048
0	4308	0.400526200819	705536
0	4308	0.400526200819	705024
0	4308	0.400526200819	704512
0	4308	0.400526200819	704000
0	4308	0.400526200819	703488
0	4308	0.400526200819	702976
0	4308	0.400526200819	702464
0	4308	0.400526200819	701952
0	4308	0.400526200819	701440
0	4308	0.400526200819	700928
0	4308	0.400526200819	700416
0	4308	0.400526200819	699904
0	4308	0.400526200819	699392
0	4308	0.400526200819	698880
0	4308	0.400526200819	698368
0	4308	0.400526200819	697856
0	4308	0.400526200819	697344
0	4308	0.400526200819	696832
0	4308	0.400526200819	696320
0	4308	0.400526200819	695808
0	4308	0.400526200819	695296
0	4308	0.400526200819	694784
0	4308	0.400526200819	694272
0	4308	0.400526200819	693760
0	4308	0.400526200819	693248
0	4308	0.400526200819	692736
0	4308	0.400526200819	692224
0	4308	0.400526200819	691712
0	4308	0.400526200819	691200
0	4308	0.400526200819	690688
0	4308	0.400526200819	690176
0	4308	0.400526200819	689664
0	4308	0.400526200819	689152
0	4308	0.400526200819	688640
0	4308	0.400526200819	688128
0	4308	0.400526200819	687616
0	4308	0.400526200819	687104
0	4308	0.400526200819	686592
0	4308	0.400526200819	686080
0	4308	0.400526200819	685568
0	4308	0.400526200819	685056
0	4308	0.400526200819	684544
0	4308	0.400526200819	684032
0	4308	0.400526200819	683520
0	4308	0.400526200819	683008
0	4308	0.400526200819	682496
0	4308	0.400526200819	681984
0	4308	0.400526200819	681472
0	4308	0.400526200819	680960
0	4308	0.400526200819	680448
0	4308	0.400526200819	679936
0	4308	0.400526200819	679424
0	4308	0.400526200819	678912
0	4308	0.400526200819	678400
0	4308	0.400526200819	677888
0	4308	0.400526200819	677376
0	4308	0.400526200819	676864
0	4308	0.400526200819	676352
0	4308	0.400526200819	675840
0	4308	0.400526200819	675328
0	4308	0.400526200819	674816
0	4308	0.400526200819	674304
0	4308	0.400526200819	673792
0	4308	0.400526200819	673280
0	4308	0.400526200819	672768
0	4308	0.400526200819	672256
0	4308	0.400526200819	671744
0	4308	0.400526200819	671232
0	4308	0.400526200819	670720
0	4308	0.400526200819	670208
0	4308	0.400526200819	669696
0	4308	0.400526200819	669184
0	4308	0.400526200819	668672
0	4308	0.400526200819	668160
0	4308	0.400526200819	667648
0	4308	0.400526200819	667136
0	4308	0.400526200819	666624
0	4308	0.400526200819	666112
0	4308	0.400526200819	665600
0	4308	0.400526200819	665088
0	4308	0.400526200819	664576
0	4308	0.400526200819	664064
0	4308	0.400526200819	663552
0	4308	0.400526200819	663040
0	4308	0.400526200819	662528
0	4308	0.400526200819	662016
0	4308	0.400526200819	661504
0	4308	0.400526200819	660992
0	4308	0.400526200819	660480
0	4308	0.400526200819	659968
0	4308	0.400526200819	659456
0	4308	0.400526200819	658944
0	4308	0.400526200819	658432
0	4308	0.400526200819	657920
0	4308	0.400526200819	657408
0	4308	0.400526200819	656896
0	4308	0.400526200819	656384
0	4308	0.400526200819	655872
0	4308	0.400526200819	655360
0	4308	0.400526200819	654848
0	4308	0.400526200819	654336
0	4308	0.400526200819	653824
0	4308	0.400526200819	653312
0	4308	0.400526200819	652800
0	4308	0.400526200819	652288
0	4308	0.400526200819	651776
0	4308	0.400526200819	651264
0	4308	0.400526200819	650752
0	4308	0.400526200819	650240
0	4308	0.400526200819	649728
0	4308	0.400526200819	649216
0	4308	0.400526200819	648704
0	4308	0.400526200819	648192
0	4308	0.400526200819	647680
0	4308	0.400526200819	647168
0	4308	0.400526200819	646656
0	4308	0.400526200819	646144
0	4308	0.400526200819	645632
0	4308	0.400526200819	645120
0	4308	0.400526200819	644608
0	4308	0.400526200819	644096
0	4308	0.400526200819	643584
0	4308	0.400526200819	643072
0	4308	0.400526200819	642560
0	4308	0.400526200819	642048
0	4308	0.400526200819	641536
0	4308	0.400526200819	641024
0	4308	0.400526200819	640512
0	4308	0.400526200819	640000
0	4308	0.400526200819	639488
0	4308	0.400526200819	638976
0	4308	0.400526200819	638464
0	4308	0.400526200819	637952
0	4308	0.400526200819	637440
0	4308	0.400526200819	636928
0	4308	0.400526200819	636416
0	4308	0.400526200819	635904
0	4308	0.400526200819	635392
0	4308	0.400526200819	634880
0	4308	0.400526200819	634368
0	4308	0.400526200819	633856
0	4308	0.400526200819	633344
0	4308	0.400526200819	632832
0	4308	0.400526200819	632320
0	4308	0.400526200819	631808
0	4308	0.400526200819	631296
0	4308	0.400526200819	630784
0	4308	0.400526200819	630272
0	4308	0.400526200819	629760
0	4308	0.400526200819	629248
0	4308	0.400526200819	628736
0	4308	0.400526200819	628224
0	4308	0.400526200819	627712
0	4308	0.400526200819	627200
0	4308	0.400526200819	626688
0	4308	0.400526200819	626176
0	4308	0.400526200819	625664
0	4308	0.400526200819	625152
0	4308	0.400526200819	624640
0	4308	0.400526200819	624128
0	4308	0.400526200819	623616
0	4308	0.400526200819	623104
0	4308	0.400526200819	622592
0	4308	0.400526200819	622080
0	4308	0.400526200819	621568
0	4308	0.400526200819	621056
0	4308	0.400526200819	620544
0	4308	0.400526200819	620032
0	4308	0.400526200819	619520
0	4308	0.400526200819	619008
0	4308	0.400526200819	618496
0	4308	0.400526200819	617984
0	4308	0.400526200819	617472
0	4308	0.400526200819	616960
0	4308	0.400526200819	616448
0	4308	0.400526200819	615936
0	4308	0.400526200819	615424
0	4308	0.400526200819	614912
0	4708	0.400535140598	819200
0	4708	0.400535140598	818688
0	4708	0.400535140598	818176
0	4708	0.400535140598	817664
0	4708	0.400535140598	817152
0	4708	0.400535140598	816640
0	4708	0.400535140598	816128
0	4708	0.400535140598	815616
0	4708	0.400535140598	815104
0	4708	0.400535140598	814592
0	4708	0.400535140598	814080
0	4708	0.400535140598	813568
0	4708	0.400535140598	813056
0	4708	0.400535140598	812544
0	4708	0.400535140598	812032
0	4708	0.400535140598	811520
0	4708	0.400535140598	811008
0	4708	0.400535140598	810496
0	4708	0.400535140598	809984
0	4708	0.400535140598	809472
0	4708	0.400535140598	808960
0	4708	0.400535140598	808448
0	4708	0.400535140598	807936
0	4708	0.400535140598	807424
0	4708	0.400535140598	806912
0	4708	0.400535140598	806400
0	4708	0.400535140598	805888
0	4708	0.400535140598	805376
0	4708	0.400535140598	804864
0	4708	0.400535140598	804352
0	4708	0.400535140598	803840
0	4708	0.400535140598	803328
0	4708	0.400535140598	802816
0	4708	0.400535140598	802304
0	4708	0.400535140598	801792
0	4708	0.400535140598	801280
0	4708	0.400535140598	800768
0	4708	0.400535140598	800256
0	4708	0.400535140598	799744
0	4708	0.400535140598	799232
0	4708	0.400535140598	798720
0	4708	0.400535140598	798208
0	4708	0.400535140598	797696
0	4708	0.400535140598	797184
0	4708	0.400535140598	796672
0	4708	0.400535140598	796160
0	4708	0.400535140598	795648
0	4708	0.400535140598	795136
0	4708	0.400535140598	794624
0	4708	0.400535140598	794112
0	4708	0.400535140598	793600
0	4708	0.400535140598	793088
0	4708	0.400535140598	792576
[...]
0	122438	1500.902927273672	54784
0	122438	1500.902927273672	54272
0	122438	1500.902927273672	53760
0	122438	1500.902927273672	53248
0	122438	1500.902927273672	52736
0	122438	1500.902927273672	52224
0	122438	1500.902927273672	51712
0	122438	1500.902927273672	51200
0	122438	1500.902927273672	50688
0	122438	1500.902927273672	50176
0	122438	1500.902927273672	49664
0	122438	1500.902927273672	49152
0	122438	1500.902927273672	48640
0	122438	1500.902927273672	48128
0	122438	1500.902927273672	47616
0	122438	1500.902927273672	47104
0	122438	1500.902927273672	46592
0	122438	1500.902927273672	46080
0	122438	1500.902927273672	45568
0	122438	1500.902927273672	45056
0	122438	1500.902927273672	44544
0	122438	1500.902927273672	44032
0	122438	1500.902927273672	43520
0	122438	1500.902927273672	43008
0	122438	1500.902927273672	42496
0	122438	1500.902927273672	41984
0	122438	1500.902927273672	41472
0	122438	1500.902927273672	40960
0	122438	1500.902927273672	40448
0	122438	1500.902927273672	39936
0	122438	1500.902927273672	39424
0	122438	1500.902927273672	38912
0	122438	1500.902927273672	38400
0	122438	1500.902927273672	37888
0	122438	1500.902927273672	37376
0	122438	1500.902927273672	36864
0	122438	1500.902927273672	36352
0	122438	1500.902927273672	35840
0	122438	1500.902927273672	35328
0	122438	1500.902927273672	34816
0	122438	1500.902927273672	34304
0	122438	1500.902927273672	33792
0	122438	1500.902927273672	33280
0	122438	1500.902927273672	32768
0	122438	1500.902927273672	32256
0	122438	1500.902927273672	31744
0	122438	1500.902927273672	31232
0	122438	1500.902927273672	30720
0	122438	1500.902927273672	30208
0	122438	1500.902927273672	29696
0	122438	1500.902927273672	29184
0	122438	1500.902927273672	28672
0	122438	1500.902927273672	28160
0	122438	1500.902927273672	27648
0	122438	1500.902927273672	27136
0	122438	1500.902927273672	26624
0	122438	1500.902927273672	26112
0	122438	1500.902927273672	25600
0	122438	1500.902927273672	25088
0	122438	1500.902927273672	24576
0	122438	1500.902927273672	24064
0	122438	1500.902927273672	23552
0	122438	1500.902927273672	23040
0	122438	1500.902927273672	22528
0	122438	1500.902927273672	22016
0	122438	1500.902927273672	21504
0	122438	1500.902927273672	20992
0	122438	1500.902927273672	20480
0	122438	1500.902927273672	19968
0	122438	1500.902927273672	19456
0	122438	1500.902927273672	18944
0	122438	1500.902927273672	18432
0	122438	1500.902927273672	17920
0	122438	1500.902927273672	17408
0	122438	1500.902927273672	16896
0	122438	1500.902927273672	16384
0	122438	1500.902927273672	15872
0	122438	1500.902927273672	15360
0	122438	1500.902927273672	14848
0	122438	1500.902927273672	14336
0	122438	1500.902927273672	13824
0	122438	1500.902927273672	13312
0	122438	1500.902927273672	12800
0	122438	1500.902927273672	12288
0	122438	1500.902927273672	11776
0	122438	1500.902927273672	11264
0	122438	1500.902927273672	10752
0	122438	1500.902927273672	10240
0	122438	1500.902927273672	9728
0	122438	1500.902927273672	9216
0	122438	1500.902927273672	8704
0	122438	1500.902927273672	8192
0	122438	1500.902927273672	7680
0	122438	1500.902927273672	7168
0	122438	1500.902927273672	6656
0	122438	1500.902927273672	6144
0	122438	1500.902927273672	5632
0	122438	1500.902927273672	5120
0	122438	1500.902927273672	4608
0	122438	1500.902927273672	4096
0	122438	1500.902927273672	3584
0	122438	1500.902927273672	3072
0	122438	1500.902927273672	2560
0	122438	1500.902927273672	2048
0	122438	1500.902927273672	1536
0	122438	1500.902927273672	1024
0	122438	1500.902927273672	512
0	122538	1500.903268733398	51200
0	122538	1500.903268733398	50688
0	122538	1500.903268733398	50176
0	122538	1500.903268733398	49664
0	122538	1500.903268733398	49152
0	122538	1500.903268733398	48640
0	122538	1500.903268733398	48128
0	122538	1500.903268733398	47616
0	122538	1500.903268733398	47104
0	122538	1500.903268733398	46592
0	122538	1500.903268733398	46080
0	122538	1500.903268733398	45568
0	122538	1500.903268733398	45056
0	122538	1500.903268733398	44544
0	122538	1500.903268733398	44032
0	122538	1500.903268733398	43520
0	122538	1500.903268733398	43008
0	122538	1500.903268733398	42496
0	122538	1500.903268733398	41984
0	122538	1500.903268733398	41472
0	122538	1500.903268733398	40960
0	122538	1500.903268733398	40448
0	122538	1500.903268733398	39936
0	122538	1500.903268733398	39424
0	122538	1500.903268733398	38912
0	122538	1500.903268733398	38400
0	122538	1500.903268733398	37888
0	122538	1500.903268733398	37376
0	122538	1500.903268733398	36864
0	122538	1500.903268733398	36352
0	122538	1500.903268733398	35840
0	122538	1500.903268733398	35328
0	122538	1500.903268733398	34816
0	122538	1500.903268733398	34304
0	122538	1500.903268733398	33792
0	122538	1500.903268733398	33280
0	122538	1500.903268733398	32768
0	122538	1500.903268733398	32256
0	122538	1500.903268733398	31744
0	122538	1500.903268733398	31232
0	122538	1500.903268733398	30720
0	122538	1500.903268733398	30208
0	122538	1500.903268733398	29696
0	122538	1500.903268733398	29184
0	122538	1500.903268733398	28672
0	122538	1500.903268733398	28160
0	122538	1500.903268733398	27648
0	122538	1500.903268733398	27136
0	122538	1500.903268733398	26624
0	122538	1500.903268733398	26112
0	122538	1500.903268733398	25600
0	122538	1500.903268733398	25088
0	122538	1500.903268733398	24576
0	122538	1500.903268733398	24064
0	122538	1500.903268733398	23552
0	122538	1500.903268733398	23040
0	122538	1500.903268733398	22528
0	122538	1500.903268733398	22016
0	122538	1500.903268733398	21504
0	122538	1500.903268733398	20992
0	122538	1500.903268733398	20480
0	122538	1500.903268733398	19968
0	122538	1500.903268733398	19456
0	122538	1500.903268733398	18944
0	122538	1500.903268733398	18432
0	122538	1500.903268733398	17920
0	122538	1500.903268733398	17408
0	122538	1500.903268733398	16896
0	122538	1500.903268733398	16384
0	122538	1500.903268733398	15872
0	122538	1500.903268733398	15360
0	122538	1500.903268733398	14848
0	122538	1500.903268733398	14336
0	122538	1500.903268733398	13824
0	122538	1500.903268733398	13312
0	122538	1500.903268733398	12800
0	122538	1500.903268733398	12288
0	122538	1500.903268733398	11776
0	122538	1500.903268733398	11264
0	122538	1500.903268733398	10752
0	122538	1500.903268733398	10240
0	122538	1500.903268733398	9728
0	122538	1500.903268733398	9216
0	122538	1500.903268733398	8704
0	122538	1500.903268733398	8192
0	122538	1500.903268733398	7680
0	122538	1500.903268733398	7168
0	122538	1500.903268733398	6656
0	122538	1500.903268733398	6144
0	122538	1500.903268733398	5632
0	122538	1500.903268733398	5120
0	122538	1500.903268733398	4608
0	122538	1500.903268733398	4096
0	122538	1500.903268733398	3584
0	122538	1500.903268733398	3072
0	122538	1500.903268733398	2560
0	122538	1500.903268733398	2048
0	122538	1500.903268733398	1536
0	122538	1500.903268733398	1024
0	122538	1500.903268733398	512
0	122738	1500.903401359745	102400
0	122738	1500.903401359745	101888
0	122738	1500.903401359745	101376
0	122738	1500.903401359745	100864
0	122738	1500.903401359745	100352
0	122738	1500.903401359745	99840
0	122738	1500.903401359745	99328
0	122738	1500.903401359745	98816
0	122738	1500.903401359745	98304
0	122738	1500.903401359745	97792
0	122738	1500.903401359745	97280
0	122738	1500.903401359745	96768
0	122738	1500.903401359745	96256
0	122738	1500.903401359745	95744
0	122738	1500.903401359745	95232
0	122738	1500.903401359745	94720
0	122738	1500.903401359745	94208
0	122738	1500.903401359745	93696
0	122738	1500.903401359745	93184
0	122738	1500.903401359745	92672
0	122738	1500.903401359745	92160
0	122738	1500.903401359745	91648
0	122738	1500.903401359745	91136
0	122738	1500.903401359745	90624
0	122738	1500.903401359745	90112
0	122738	1500.903401359745	89600
0	122738	1500.903401359745	89088
0	122738	1500.903401359745	88576
0	122738	1500.903401359745	88064
0	122738	1500.903401359745	87552
0	122738	1500.903401359745	87040
0	122738	1500.903401359745	86528
0	122738	1500.903401359745	86016
0	122738	1500.903401359745	85504
0	122738	1500.903401359745	84992
0	122738	1500.903401359745	84480
0	122738	1500.903401359745	83968
0	122738	1500.903401359745	83456
0	122738	1500.903401359745	82944
0	122738	1500.903401359745	82432
0	122738	1500.903401359745	81920
0	122738	1500.903401359745	81408
0	122738	1500.903401359745	80896
0	122738	1500.903401359745	80384
0	122738	1500.903401359745	79872
0	122738	1500.903401359745	79360
0	122738	1500.903401359745	78848
0	122738	1500.903401359745	78336
0	122738	1500.903401359745	77824
0	122738	1500.903401359745	77312
0	122738	1500.903401359745	76800
0	122738	1500.903401359745	76288
0	122738	1500.903401359745	75776
0	122738	1500.903401359745	75264
0	122738	1500.903401359745	74752
0	122738	1500.903401359745	74240
0	122738	1500.903401359745	73728
0	122738	1500.903401359745	73216
0	122738	1500.903401359745	72704
0	122738	1500.903401359745	72192
0	122738	1500.903401359745	71680
0	122738	1500.903401359745	71168
0	122738	1500.903401359745	70656
0	122738	1500.903401359745	70144
0	122738	1500.903401359745	69632
0	122738	1500.903401359745	69120
0	122738	1500.903401359745	68608
0	122738	1500.903401359745	68096
0	122738	1500.903401359745	67584
0	122738	1500.903401359745	67072
0	122738	1500.903401359745	66560
0	122738	1500.903401359745	66048
0	122738	1500.903401359745	65536
0	122738	1500.903401359745	65024
0	122738	1500.903401359745	64512
0	122738	1500.903401359745	64000
0	122738	1500.903401359745	63488
0	122738	1500.903401359745	62976
0	122738	1500.903401359745	62464
0	122738	1500.903401359745	61952
0	122738	1500.903401359745	61440
0	122738	1500.903401359745	60928
0	122738	1500.903401359745	60416
0	122738	1500.903401359745	59904
0	122738	1500.903401359745	59392
0	122738	1500.903401359745	58880
0	122738	1500.903401359745	58368
0	122738	1500.903401359745	57856
0	122738	1500.903401359745	57344
0	122738	1500.903401359745	56832
0	122738	1500.903401359745	56320
0	122738	1500.903401359745	55808
0	122738	1500.903401359745	55296
0	122738	1500.903401359745	54784
0	122738	1500.903401359745	54272
0	122738	1500.903401359745	53760
0	122738	1500.903401359745	53248
0	122738	1500.903401359745	52736
0	122738	1500.903401359745	52224
0	122738	1500.903401359745	51712
0	122838	1500.903498522049	102400
0	122838	1500.903498522049	101888
0	122838	1500.903498522049	101376
0	122838	1500.903498522049	100864
0	122838	1500.903498522049	100352
0	122838	1500.903498522049	99840
0	122838	1500.903498522049	99328
0	122838	1500.903498522049	98816
0	122838	1500.903498522049	98304
0	122838	1500.903498522049	97792
0	122838	1500.903498522049	97280
0	122838	1500.903498522049	96768
0	122838	1500.903498522049	96256
0	122838	1500.903498522049	95744
0	122838	1500.903498522049	95232
0	122838	1500.903498522049	94720
0	122838	1500.903498522049	94208
0	122838	1500.903498522049	93696
0	122838	1500.903498522049	93184
0	122838	1500.903498522049	92672
0	122838	1500.903498522049	92160
0	122838	1500.903498522049	91648
0	122838	1500.903498522049	91136
0	122838	1500.903498522049	90624
0	122838	1500.903498522049	90112
0	122838	1500.903498522049	89600
0	122838	1500.903498522049	89088
0	122838	1500.903498522049	88576
0	122838	1500.903498522049	88064
0	122838	1500.903498522049	87552
0	122838	1500.903498522049	87040
0	122838	1500.903498522049	86528
0	122838	1500.903498522049	86016
0	122838	1500.903498522049	85504
0	122838	1500.903498522049	84992
0	122838	1500.903498522049	84480
0	122838	1500.903498522049	83968
0	122838	1500.903498522049	83456
0	122838	1500.903498522049	82944
0	122838	1500.903498522049	82432
0	122838	1500.903498522049	81920
0	122838	1500.903498522049	81408
0	122838	1500.903498522049	80896
0	122838	1500.903498522049	80384
0	122838	1500.903498522049	79872
0	122838	1500.903498522049	79360
0	122838	1500.903498522049	78848
0	122838	1500.903498522049	78336
0	122838	1500.903498522049	77824
0	122838	1500.903498522049	77312
0	122838	1500.903498522049	76800
0	122838	1500.903498522049	76288
0	122838	1500.903498522049	75776
0	122838	1500.903498522049	75264
0	122838	1500.903498522049	74752
0	122838	1500.903498522049	74240
0	122838	1500.903498522049	73728
0	122838	1500.903498522049	73216
0	122838	1500.903498522049	72704
0	122838	1500.903498522049	72192
0	122838	1500.903498522049	71680
0	122838	1500.903498522049	71168
0	122838	1500.903498522049	70656
0	122838	1500.903498522049	70144
0	122838	1500.903498522049	69632
0	122838	1500.903498522049	69120
0	122838	1500.903498522049	68608
0	122838	1500.903498522049	68096
0	122838	1500.903498522049	67584
0	122838	1500.903498522049	67072
0	122838	1500.903498522049	66560
0	122838	1500.903498522049	66048
0	122838	1500.903498522049	65536
0	122838	1500.903498522049	65024
0	122838	1500.903498522049	64512
0	122838	1500.903498522049	64000
0	122838	1500.903498522049	63488
0	122838	1500.903498522049	62976
0	122838	1500.903498522049	62464
0	122838	1500.903498522049	61952
0	122838	1500.903498522049	61440
0	122838	1500.903498522049	60928
0	122838	1500.903498522049	60416
0	122838	1500.903498522049	59904
0	122838	1500.903498522049	59392
0	122838	1500.903498522049	58880
0	122838	1500.903498522049	58368
0	122838	1500.903498522049	57856
0	122838	1500.903498522049	57344
0	122838	1500.903498522049	56832
0	122838	1500.903498522049	56320
0	122838	1500.903498522049	55808
0	122838	1500.903498522049	55296
0	122838	1500.903498522049	54784
0	122838	1500.903498522049	54272
0	122838	1500.903498522049	53760
0	122838	1500.903498522049	53248
0	122838	1500.903498522049	52736
0	122838	1500.903498522049	52224
0	122838	1500.903498522049	51712
0	122938	1500.903702386598	102400
0	122938	1500.903702386598	101888
0	122938	1500.903702386598	101376
0	122938	1500.903702386598	100864
0	122938	1500.903702386598	100352
0	122938	1500.903702386598	99840
0	122938	1500.903702386598	99328
0	122938	1500.903702386598	98816
0	122938	1500.903702386598	98304
0	122938	1500.903702386598	97792
0	122938	1500.903702386598	97280
0	122938	1500.903702386598	96768
0	122938	1500.903702386598	96256
0	122938	1500.903702386598	95744
0	122938	1500.903702386598	95232
0	122938	1500.903702386598	94720
0	122938	1500.903702386598	94208
0	122938	1500.903702386598	93696
0	122938	1500.903702386598	93184
0	122938	1500.903702386598	92672
0	122938	1500.903702386598	92160
0	122938	1500.903702386598	91648
0	122938	1500.903702386598	91136
0	122938	1500.903702386598	90624
0	122938	1500.903702386598	90112
0	122938	1500.903702386598	89600
0	122938	1500.903702386598	89088
0	122938	1500.903702386598	88576
0	122938	1500.903702386598	88064
0	122938	1500.903702386598	87552
0	122938	1500.903702386598	87040
0	122938	1500.903702386598	86528
0	122938	1500.903702386598	86016
0	122938	1500.903702386598	85504
0	122938	1500.903702386598	84992
0	122938	1500.903702386598	84480
0	122938	1500.903702386598	83968
0	122938	1500.903702386598	83456
0	122938	1500.903702386598	82944
0	122938	1500.903702386598	82432
0	122938	1500.903702386598	81920
0	122938	1500.903702386598	81408
0	122938	1500.903702386598	80896
0	122938	1500.903702386598	80384
0	122938	1500.903702386598	79872
0	122938	1500.903702386598	79360
0	122938	1500.903702386598	78848
0	122938	1500.903702386598	78336
0	122938	1500.903702386598	77824
0	122938	1500.903702386598	77312
0	122938	1500.903702386598	76800
0	122938	1500.903702386598	76288
0	122938	1500.903702386598	75776
0	122938	1500.903702386598	75264
0	122938	1500.903702386598	74752
0	122938	1500.903702386598	74240
0	122938	1500.903702386598	73728
0	122938	1500.903702386598	73216
0	122938	1500.903702386598	72704
0	122938	1500.903702386598	72192
0	122938	1500.903702386598	71680
0	122938	1500.903702386598	71168
0	122938	1500.903702386598	70656
0	122938	1500.903702386598	70144
0	122938	1500.903702386598	69632
0	122938	1500.903702386598	69120
0	122938	1500.903702386598	68608
0	122938	1500.903702386598	68096
0	122938	1500.903702386598	67584
0	122938	1500.903702386598	67072
0	122938	1500.903702386598	66560
0	122938	1500.903702386598	66048
0	122938	1500.903702386598	65536
0	122938	1500.903702386598	65024
0	122938	1500.903702386598	64512
0	122938	1500.903702386598	64000
0	122938	1500.903702386598	63488
0	122938	1500.903702386598	62976
0	122938	1500.903702386598	62464
0	122938	1500.903702386598	61952
0	122938	1500.903702386598	61440
0	122938	1500.903702386598	60928
0	122938	1500.903702386598	60416
0	122938	1500.903702386598	59904
0	122938	1500.903702386598	59392
0	122938	1500.903702386598	58880
0	122938	1500.903702386598	58368
0	122938	1500.903702386598	57856
0	122938	1500.903702386598	57344
0	122938	1500.903702386598	56832
0	122938	1500.903702386598	56320
0	122938	1500.903702386598	55808
0	122938	1500.903702386598	55296
0	122938	1500.903702386598	54784
0	122938	1500.903702386598	54272
0	122938	1500.903702386598	53760
0	122938	1500.903702386598	53248
0	122938	1500.903702386598	52736
0	122938	1500.903702386598	52224
0	122938	1500.903702386598	51712
0	122938	1500.903702386598	51200
0	122938	1500.903702386598	50688
0	122938	1500.903702386598	50176
0	122938	1500.903702386598	49664
0	122938	1500.903702386598	49152
0	122938	1500.903702386598	48640
0	122938	1500.903702386598	48128
0	122938	1500.903702386598	47616
0	122938	1500.903702386598	47104
0	122938	1500.903702386598	46592
0	122938	1500.903702386598	46080
0	122938	1500.903702386598	45568
0	122938	1500.903702386598	45056
0	122938	1500.903702386598	44544
0	122938	1500.903702386598	44032
0	122938	1500.903702386598	43520
0	122938	1500.903702386598	43008
0	122938	1500.903702386598	42496
0	122938	1500.903702386598	41984
0	122938	1500.903702386598	41472
0	122938	1500.903702386598	40960
0	122938	1500.903702386598	40448
0	122938	1500.903702386598	39936
0	122938	1500.903702386598	39424
0	122938	1500.903702386598	38912
0	122938	1500.903702386598	38400
0	122938	1500.903702386598	37888
0	122938	1500.903702386598	37376
0	122938	1500.903702386598	36864
0	122938	1500.903702386598	36352
0	122938	1500.903702386598	35840
0	122938	1500.903702386598	35328
0	122938	1500.903702386598	34816
0	122938	1500.903702386598	34304
0	122938	1500.903702386598	33792
0	122938	1500.903702386598	33280
0	122938	1500.903702386598	32768
0	122938	1500.903702386598	32256
0	122938	1500.903702386598	31744
0	122938	1500.903702386598	31232
0	122938	1500.903702386598	30720
0	122938	1500.903702386598	30208
0	122938	1500.903702386598	29696
0	122938	1500.903702386598	29184
0	122938	1500.903702386598	28672
0	122938	1500.903702386598	28160
0	122938	1500.903702386598	27648
0	122938	1500.903702386598	27136
0	122938	1500.903702386598	26624
0	122938	1500.903702386598	26112
0	122938	1500.903702386598	25600
0	122938	1500.903702386598	25088
0	122938	1500.903702386598	24576
0	122938	1500.903702386598	24064
0	122938	1500.903702386598	23552
0	122938	1500.903702386598	23040
0	122938	1500.903702386598	22528
0	122938	1500.903702386598	22016
0	122938	1500.903702386598	21504
0	122938	1500.903702386598	20992
0	122938	1500.903702386598	20480
0	122938	1500.903702386598	19968
0	122938	1500.903702386598	19456
0	122938	1500.903702386598	18944
0	122938	1500.903702386598	18432
0	122938	1500.903702386598	17920
0	122938	1500.903702386598	17408
0	122938	1500.903702386598	16896
0	122938	1500.903702386598	16384
0	122938	1500.903702386598	15872
0	122938	1500.903702386598	15360
0	122938	1500.903702386598	14848
0	122938	1500.903702386598	14336
0	122938	1500.903702386598	13824
0	122938	1500.903702386598	13312
0	122938	1500.903702386598	12800
0	122938	1500.903702386598	12288
0	122938	1500.903702386598	11776
0	122938	1500.903702386598	11264
0	122938	1500.903702386598	10752
0	122938	1500.903702386598	10240
0	122938	1500.903702386598	9728
0	122938	1500.903702386598	9216
0	122938	1500.903702386598	8704
0	122938	1500.903702386598	8192
0	122938	1500.903702386598	7680
0	122938	1500.903702386598	7168
0	122938	1500.903702386598	6656
0	122938	1500.903702386598	6144
0	122938	1500.903702386598	5632
0	122938	1500.903702386598	5120
0	122938	1500.903702386598	4608
0	122938	1500.903702386598	4096
0	122938	1500.903702386598	3584
0	122938	1500.903702386598	3072
0	122938	1500.903702386598	2560
0	122938	1500.903702386598	2048
0	122938	1500.903702386598	1536
0	122938	1500.903702386598	1024
0	122938	1500.903702386598	512

