file 3994085 1525655286                                         
version 2
run General-0-20180506-20:57:18-12176
attr configname General
attr datetime 20180506-20:57:18
attr experiment General
attr inifile pulse_net.ini
attr iterationvars ""
attr iterationvarsf ""
attr measurement ""
attr network Pulse_net
attr processid 12176
attr repetition 0
attr replication #0
attr resultdir results
attr runnumber 0
attr seedset 0
param **.attacker.sendInitialMessage true

vector 0 Pulse_net.victim[0] "" ETV
0	455 1034735 1308 34814 0.400311661815 300.501228073346 32768 512 1433600 25322225664 2.2375946036183e+016
0	1035190 1080381 34814 69526 300.501228073346 900.701087938747 32768 512 1433600 21194776576 1.701628346368e+016
0	2115571 1102419 69526 101432 900.701087938747 1200.802305944574 32768 512 1433600 23211532288 1.9564649435365e+016
0	3217990 776093 101432 122938 1200.802305944574 1500.903702386598 22196 512 1433600 14457193472 1.1954659494724e+016

